<?xml version="1.0" encoding="UTF-8"?>

<!-- generated on 2021-07-05 22:24:48 by Eclipse SUMO netedit Version 1.9.2
<configuration xmlns:xsi="http://www.w3.org/2001/XMLSchema-instance" xsi:noNamespaceSchemaLocation="http://sumo.dlr.de/xsd/netconvertConfiguration.xsd">

    <input>
        <sumo-net-file value="/home/niels/git/TCEP/scripts/mininetSim/mininet-wifi/mn_wifi/sumo/data/osm.net.xml"/>
    </input>

    <output>
        <output-file value="/home/niels/git/TCEP/scripts/mininetSim/mininet-wifi/mn_wifi/sumo/data/osm.net.xml"/>
    </output>

    <processing>
        <geometry.min-radius.fix.railways value="false"/>
        <geometry.max-grade.fix value="false"/>
        <offset.disable-normalization value="true"/>
        <lefthand value="false"/>
    </processing>

    <junctions>
        <no-turnarounds value="true"/>
        <junctions.corner-detail value="5"/>
        <junctions.limit-turn-speed value="5.5"/>
        <rectangular-lane-cut value="false"/>
    </junctions>

    <pedestrian>
        <walkingareas value="false"/>
    </pedestrian>

    <report>
        <aggregate-warnings value="5"/>
    </report>

</configuration>
-->

<net version="1.9" junctionCornerDetail="5" limitTurnSpeed="5.50" xmlns:xsi="http://www.w3.org/2001/XMLSchema-instance" xsi:noNamespaceSchemaLocation="http://sumo.dlr.de/xsd/net_file.xsd">

    <location netOffset="-466786.44,-5542770.58" convBoundary="241.28,293.60,10900.81,3270.55" origBoundary="8.535996,50.027354,8.702578,50.082421" projParameter="+proj=utm +zone=32 +ellps=WGS84 +datum=WGS84 +units=m +no_defs"/>

    <type id="highway.bridleway" priority="1" numLanes="1" speed="2.78" allow="pedestrian" oneway="1" width="2.00"/>
    <type id="highway.bus_guideway" priority="1" numLanes="1" speed="27.78" allow="bus" oneway="1"/>
    <type id="highway.cycleway" priority="1" numLanes="1" speed="8.33" allow="bicycle" oneway="1" width="1.00"/>
    <type id="highway.footway" priority="1" numLanes="1" speed="2.78" allow="pedestrian" oneway="1" width="2.00"/>
    <type id="highway.ford" priority="1" numLanes="1" speed="2.78" allow="army" oneway="1"/>
    <type id="highway.living_street" priority="2" numLanes="1" speed="2.78" disallow="tram rail_urban rail rail_electric rail_fast ship" oneway="1"/>
    <type id="highway.motorway" priority="14" numLanes="2" speed="39.44" allow="private emergency authority army vip passenger hov taxi bus coach delivery truck trailer motorcycle evehicle custom1 custom2" oneway="1"/>
    <type id="highway.motorway_link" priority="9" numLanes="1" speed="22.22" allow="private emergency authority army vip passenger hov taxi bus coach delivery truck trailer motorcycle evehicle custom1 custom2" oneway="1"/>
    <type id="highway.path" priority="1" numLanes="1" speed="2.78" allow="pedestrian bicycle" oneway="1" width="2.00"/>
    <type id="highway.pedestrian" priority="1" numLanes="1" speed="2.78" allow="pedestrian" oneway="1" width="2.00"/>
    <type id="highway.primary" priority="12" numLanes="2" speed="27.78" disallow="tram rail_urban rail rail_electric rail_fast ship" oneway="1"/>
    <type id="highway.primary_link" priority="7" numLanes="1" speed="22.22" disallow="tram rail_urban rail rail_electric rail_fast ship" oneway="1"/>
    <type id="highway.raceway" priority="15" numLanes="2" speed="83.33" allow="vip" oneway="1"/>
    <type id="highway.residential" priority="3" numLanes="1" speed="13.89" disallow="tram rail_urban rail rail_electric rail_fast ship" oneway="1"/>
    <type id="highway.secondary" priority="11" numLanes="1" speed="27.78" disallow="tram rail_urban rail rail_electric rail_fast ship" oneway="1"/>
    <type id="highway.secondary_link" priority="6" numLanes="1" speed="22.22" disallow="tram rail_urban rail rail_electric rail_fast ship" oneway="1"/>
    <type id="highway.service" priority="1" numLanes="1" speed="5.56" allow="pedestrian delivery bicycle" oneway="1"/>
    <type id="highway.stairs" priority="1" numLanes="1" speed="1.39" allow="pedestrian" oneway="1" width="2.00"/>
    <type id="highway.step" priority="1" numLanes="1" speed="1.39" allow="pedestrian" oneway="1" width="2.00"/>
    <type id="highway.steps" priority="1" numLanes="1" speed="1.39" allow="pedestrian" oneway="1" width="2.00"/>
    <type id="highway.tertiary" priority="10" numLanes="1" speed="22.22" disallow="tram rail_urban rail rail_electric rail_fast ship" oneway="1"/>
    <type id="highway.tertiary_link" priority="5" numLanes="1" speed="22.22" disallow="tram rail_urban rail rail_electric rail_fast ship" oneway="1"/>
    <type id="highway.track" priority="1" numLanes="1" speed="5.56" disallow="tram rail_urban rail rail_electric rail_fast ship" oneway="1"/>
    <type id="highway.trunk" priority="13" numLanes="2" speed="27.78" disallow="pedestrian bicycle tram rail_urban rail rail_electric rail_fast ship" oneway="1"/>
    <type id="highway.trunk_link" priority="8" numLanes="1" speed="22.22" disallow="pedestrian bicycle tram rail_urban rail rail_electric rail_fast ship" oneway="1"/>
    <type id="highway.unclassified" priority="4" numLanes="1" speed="13.89" disallow="tram rail_urban rail rail_electric rail_fast ship" oneway="1"/>
    <type id="highway.unsurfaced" priority="1" numLanes="1" speed="8.33" disallow="tram rail_urban rail rail_electric rail_fast ship" oneway="1"/>
    <type id="railway.highspeed" priority="21" numLanes="1" speed="69.44" allow="rail_fast" oneway="1"/>
    <type id="railway.light_rail" priority="19" numLanes="1" speed="27.78" allow="rail_urban" oneway="1"/>
    <type id="railway.preserved" priority="16" numLanes="1" speed="27.78" allow="rail" oneway="1"/>
    <type id="railway.rail" priority="20" numLanes="1" speed="44.44" allow="rail" oneway="1"/>
    <type id="railway.subway" priority="18" numLanes="1" speed="27.78" allow="rail_urban" oneway="1"/>
    <type id="railway.tram" priority="17" numLanes="1" speed="13.89" allow="tram" oneway="1"/>

    <edge id=":1136591142_0" function="internal">
        <lane id=":1136591142_0_0" index="0" allow="private emergency authority army vip passenger hov taxi bus coach delivery truck trailer motorcycle evehicle custom1 custom2" speed="22.22" length="8.21" shape="5097.14,2414.45 5098.09,2416.66 5099.10,2418.03 5100.10,2419.39 5101.07,2421.60"/>
    </edge>
    <edge id=":1227950915_0" function="internal">
        <lane id=":1227950915_0_0" index="0" allow="private emergency authority army vip passenger hov taxi bus coach delivery truck trailer motorcycle evehicle custom1 custom2" speed="19.45" length="0.10" shape="4702.20,1658.93 4702.20,1658.93"/>
    </edge>
    <edge id=":1227950941_0" function="internal">
        <lane id=":1227950941_0_0" index="0" allow="private emergency authority army vip passenger hov taxi bus coach delivery truck trailer motorcycle evehicle custom1 custom2" speed="22.22" length="8.21" shape="4803.42,1477.23 4804.83,1479.19 4806.10,1480.31 4807.37,1481.43 4808.77,1483.39"/>
        <lane id=":1227950941_0_1" index="1" allow="private emergency authority army vip passenger hov taxi bus coach delivery truck trailer motorcycle evehicle custom1 custom2" speed="22.22" length="8.21" shape="4803.42,1477.23 4804.39,1479.43 4804.71,1481.10 4805.02,1482.76 4805.99,1484.97"/>
    </edge>
    <edge id=":1227950973_0" function="internal">
        <lane id=":1227950973_0_0" index="0" allow="private emergency authority army vip passenger hov taxi bus coach delivery truck trailer motorcycle evehicle custom1 custom2" speed="30.83" length="0.10" shape="4792.14,1457.56 4792.14,1457.56"/>
    </edge>
    <edge id=":1227951071_0" function="internal">
        <lane id=":1227951071_0_0" index="0" allow="private emergency authority army vip passenger hov taxi bus coach delivery truck trailer motorcycle evehicle custom1 custom2" speed="22.22" length="7.97" shape="5013.66,2184.67 5015.00,2192.56"/>
        <lane id=":1227951071_0_1" index="1" allow="private emergency authority army vip passenger hov taxi bus coach delivery truck trailer motorcycle evehicle custom1 custom2" speed="22.22" length="7.97" shape="5010.51,2185.23 5011.84,2193.06"/>
    </edge>
    <edge id=":1227951074_0" function="internal">
        <lane id=":1227951074_0_0" index="0" allow="private emergency authority army vip passenger hov taxi bus coach delivery truck trailer motorcycle evehicle custom1 custom2" speed="19.45" length="0.10" shape="5010.10,1749.05 5010.10,1749.05"/>
    </edge>
    <edge id=":1234854641_0" function="internal">
        <lane id=":1234854641_0_0" index="0" allow="private emergency authority army vip passenger hov taxi bus coach delivery truck trailer motorcycle evehicle custom1 custom2" speed="39.44" length="7.91" shape="2830.12,1895.84 2822.28,1894.17"/>
        <lane id=":1234854641_0_1" index="1" allow="private emergency authority army vip passenger hov taxi bus coach delivery truck trailer motorcycle evehicle custom1 custom2" speed="39.44" length="7.91" shape="2830.73,1892.70 2823.00,1891.05"/>
        <lane id=":1234854641_0_2" index="2" allow="private emergency authority army vip passenger hov taxi bus coach delivery truck trailer motorcycle evehicle custom1 custom2" speed="39.44" length="7.91" shape="2831.35,1889.56 2823.72,1887.93"/>
    </edge>
    <edge id=":1240272390_0" function="internal">
        <lane id=":1240272390_0_0" index="0" allow="private emergency authority army vip passenger hov taxi bus coach delivery truck trailer motorcycle evehicle custom1 custom2" speed="33.61" length="0.30" shape="3803.39,1878.02 3803.69,1878.00"/>
    </edge>
    <edge id=":1631018189_0" function="internal">
        <lane id=":1631018189_0_0" index="0" allow="private emergency authority army vip passenger hov taxi bus coach delivery truck trailer motorcycle evehicle custom1 custom2" speed="39.44" length="8.21" shape="448.75,1097.57 446.85,1096.09 445.77,1094.78 444.70,1093.47 442.79,1091.99"/>
        <lane id=":1631018189_0_1" index="1" allow="private emergency authority army vip passenger hov taxi bus coach delivery truck trailer motorcycle evehicle custom1 custom2" speed="39.44" length="8.21" shape="450.44,1094.84 448.53,1093.37 447.46,1092.06 446.39,1090.75 444.48,1089.27"/>
        <lane id=":1631018189_0_2" index="2" allow="private emergency authority army vip passenger hov taxi bus coach delivery truck trailer motorcycle evehicle custom1 custom2" speed="39.44" length="8.21" shape="452.12,1092.12 450.22,1090.65 449.15,1089.34 448.07,1088.03 446.17,1086.55"/>
        <lane id=":1631018189_0_3" index="3" allow="private emergency authority army vip passenger hov taxi bus coach delivery truck trailer motorcycle evehicle custom1 custom2" speed="39.44" length="8.21" shape="453.81,1089.40 451.90,1087.93 450.83,1086.62 449.76,1085.31 447.86,1083.83"/>
    </edge>
    <edge id=":1651886801_0" function="internal">
        <lane id=":1651886801_0_0" index="0" allow="private emergency authority army vip passenger hov taxi bus coach delivery truck trailer motorcycle evehicle custom1 custom2" speed="39.44" length="7.97" shape="4381.12,1844.34 4388.96,1843.80"/>
        <lane id=":1651886801_0_1" index="1" allow="private emergency authority army vip passenger hov taxi bus coach delivery truck trailer motorcycle evehicle custom1 custom2" speed="39.44" length="7.97" shape="4381.28,1847.54 4389.24,1846.99"/>
        <lane id=":1651886801_0_2" index="2" allow="private emergency authority army vip passenger hov taxi bus coach delivery truck trailer motorcycle evehicle custom1 custom2" speed="39.44" length="7.97" shape="4381.45,1850.73 4389.51,1850.18"/>
    </edge>
    <edge id=":1660725081_0" function="internal">
        <lane id=":1660725081_0_0" index="0" allow="private emergency authority army vip passenger hov taxi bus coach delivery truck trailer motorcycle evehicle custom1 custom2" speed="39.44" length="8.80" shape="7382.01,2138.61 7384.46,2139.15 7386.32,2138.76 7388.17,2138.39 7390.62,2138.93"/>
        <lane id=":1660725081_0_1" index="1" allow="private emergency authority army vip passenger hov taxi bus coach delivery truck trailer motorcycle evehicle custom1 custom2" speed="39.44" length="8.80" shape="7380.71,2141.53 7383.17,2142.07 7385.02,2141.69 7386.87,2141.31 7389.32,2141.85"/>
        <lane id=":1660725081_0_2" index="2" allow="private emergency authority army vip passenger hov taxi bus coach delivery truck trailer motorcycle evehicle custom1 custom2" speed="39.44" length="8.80" shape="7379.42,2144.46 7381.87,2145.00 7383.72,2144.61 7385.57,2144.23 7388.02,2144.78"/>
        <lane id=":1660725081_0_3" index="3" allow="private emergency authority army vip passenger hov taxi bus coach delivery truck trailer motorcycle evehicle custom1 custom2" speed="39.44" length="8.80" shape="7378.12,2147.38 7380.57,2147.92 7382.42,2147.54 7384.27,2147.16 7386.72,2147.70"/>
    </edge>
    <edge id=":1685253337_0" function="internal">
        <lane id=":1685253337_0_0" index="0" allow="private emergency authority army vip passenger hov taxi bus coach delivery truck trailer motorcycle evehicle custom1 custom2" speed="22.22" length="3.51" shape="4717.81,1449.29 4716.87,1445.91"/>
    </edge>
    <edge id=":1685253337_1" function="internal">
        <lane id=":1685253337_1_0" index="0" allow="private emergency authority army vip passenger hov taxi bus coach delivery truck trailer motorcycle evehicle custom1 custom2" speed="22.22" length="3.23" shape="4720.89,1448.26 4720.58,1447.36 4720.38,1446.73 4720.20,1446.10 4719.98,1445.17"/>
    </edge>
    <edge id=":1685253762_0" function="internal">
        <lane id=":1685253762_0_0" index="0" allow="private emergency authority army vip passenger hov taxi bus coach delivery truck trailer motorcycle evehicle custom1 custom2" speed="16.67" length="0.29" shape="5008.81,1686.48 5008.62,1686.26"/>
    </edge>
    <edge id=":1685254024_0" function="internal">
        <lane id=":1685254024_0_0" index="0" allow="private emergency authority army vip passenger hov taxi bus coach delivery truck trailer motorcycle evehicle custom1 custom2" speed="30.83" length="0.28" shape="5091.06,1769.74 5091.37,1769.73"/>
        <lane id=":1685254024_0_1" index="1" allow="private emergency authority army vip passenger hov taxi bus coach delivery truck trailer motorcycle evehicle custom1 custom2" speed="30.83" length="0.28" shape="5091.16,1772.93 5091.42,1772.93"/>
    </edge>
    <edge id=":1685254138_0" function="internal">
        <lane id=":1685254138_0_0" index="0" allow="private emergency authority army vip passenger hov taxi bus coach delivery truck trailer motorcycle evehicle custom1 custom2" speed="19.45" length="1.63" shape="4829.41,1786.14 4829.52,1784.53"/>
        <lane id=":1685254138_0_1" index="1" allow="private emergency authority army vip passenger hov taxi bus coach delivery truck trailer motorcycle evehicle custom1 custom2" speed="19.45" length="1.63" shape="4829.60,1789.34 4829.77,1787.72"/>
        <lane id=":1685254138_0_2" index="2" allow="private emergency authority army vip passenger hov taxi bus coach delivery truck trailer motorcycle evehicle custom1 custom2" speed="19.45" length="1.63" shape="4829.79,1792.53 4830.02,1790.91"/>
    </edge>
    <edge id=":1685255172_0" function="internal">
        <lane id=":1685255172_0_0" index="0" allow="private emergency authority army vip passenger hov taxi bus coach delivery truck trailer motorcycle evehicle custom1 custom2" speed="22.22" length="3.01" shape="4854.63,1879.06 4853.75,1876.10"/>
        <lane id=":1685255172_0_1" index="1" allow="private emergency authority army vip passenger hov taxi bus coach delivery truck trailer motorcycle evehicle custom1 custom2" speed="22.22" length="3.01" shape="4857.66,1878.01 4856.82,1875.20"/>
    </edge>
    <edge id=":1685255172_2" function="internal">
        <lane id=":1685255172_2_0" index="0" allow="private emergency authority army vip passenger hov taxi bus coach delivery truck trailer motorcycle evehicle custom1 custom2" speed="16.66" length="2.77" shape="4860.73,1876.95 4859.89,1874.30"/>
    </edge>
    <edge id=":218144663_0" function="internal">
        <lane id=":218144663_0_0" index="0" allow="private emergency authority army vip passenger hov taxi bus coach delivery truck trailer motorcycle evehicle custom1 custom2" speed="22.22" length="35.66" shape="5340.21,1807.29 5329.76,1808.25 5320.62,1809.40 5312.45,1810.67 5304.88,1812.01"/>
        <lane id=":218144663_0_1" index="1" allow="private emergency authority army vip passenger hov taxi bus coach delivery truck trailer motorcycle evehicle custom1 custom2" speed="22.22" length="35.83" shape="5339.96,1804.10 5329.49,1805.07 5320.29,1806.22 5312.05,1807.49 5304.46,1808.83"/>
    </edge>
    <edge id=":218144663_2" function="internal">
        <lane id=":218144663_2_0" index="0" allow="private emergency authority army vip passenger hov taxi bus coach delivery truck trailer motorcycle evehicle custom1 custom2" speed="22.22" length="35.83" shape="5339.72,1800.91 5304.17,1805.43"/>
    </edge>
    <edge id=":221372906_0" function="internal">
        <lane id=":221372906_0_0" index="0" allow="private emergency authority army vip passenger hov taxi bus coach delivery truck trailer motorcycle evehicle custom1 custom2" speed="22.22" length="7.99" shape="5124.85,2662.76 5122.15,2655.22"/>
        <lane id=":221372906_0_1" index="1" allow="private emergency authority army vip passenger hov taxi bus coach delivery truck trailer motorcycle evehicle custom1 custom2" speed="22.22" length="7.99" shape="5127.85,2661.66 5125.17,2654.16"/>
    </edge>
    <edge id=":221411261_0" function="internal">
        <lane id=":221411261_0_0" index="0" allow="private emergency authority army vip passenger hov taxi bus coach delivery truck trailer motorcycle evehicle custom1 custom2" speed="39.44" length="3.13" shape="4762.96,1390.14 4764.02,1393.08"/>
    </edge>
    <edge id=":221411261_1" function="internal">
        <lane id=":221411261_1_0" index="0" allow="private emergency authority army vip passenger hov taxi bus coach delivery truck trailer motorcycle evehicle custom1 custom2" speed="39.44" length="3.07" shape="4759.95,1391.24 4760.94,1394.14"/>
    </edge>
    <edge id=":221411275_0" function="internal">
        <lane id=":221411275_0_0" index="0" allow="private emergency authority army vip passenger hov taxi bus coach delivery truck trailer motorcycle evehicle custom1 custom2" speed="22.22" length="8.11" shape="5183.83,1749.61 5186.19,1749.90 5187.84,1749.70 5189.51,1749.47 5191.89,1749.64"/>
    </edge>
    <edge id=":221450744_0" function="internal">
        <lane id=":221450744_0_0" index="0" allow="private emergency authority army vip passenger hov taxi bus coach delivery truck trailer motorcycle evehicle custom1 custom2" speed="16.66" length="3.01" shape="4884.73,1755.38 4885.73,1758.22"/>
    </edge>
    <edge id=":221450744_1" function="internal">
        <lane id=":221450744_1_0" index="0" allow="private emergency authority army vip passenger hov taxi bus coach delivery truck trailer motorcycle evehicle custom1 custom2" speed="22.22" length="3.11" shape="4890.63,1753.24 4891.01,1754.09 4891.26,1754.68 4891.49,1755.28 4891.79,1756.16"/>
        <lane id=":221450744_1_1" index="1" allow="private emergency authority army vip passenger hov taxi bus coach delivery truck trailer motorcycle evehicle custom1 custom2" speed="22.22" length="3.11" shape="4887.61,1754.34 4887.99,1755.17 4888.24,1755.74 4888.46,1756.33 4888.76,1757.19"/>
    </edge>
    <edge id=":221453123_0" function="internal">
        <lane id=":221453123_0_0" index="0" allow="private emergency authority army vip passenger hov taxi bus coach delivery truck trailer motorcycle evehicle custom1 custom2" speed="22.22" length="8.07" shape="4797.16,1496.45 4798.21,1498.55 4799.29,1499.80 4800.40,1501.04 4801.56,1503.10"/>
        <lane id=":221453123_0_1" index="1" allow="private emergency authority army vip passenger hov taxi bus coach delivery truck trailer motorcycle evehicle custom1 custom2" speed="22.22" length="8.07" shape="4797.16,1496.45 4797.76,1498.76 4797.82,1500.44 4797.92,1502.11 4798.63,1504.37"/>
    </edge>
    <edge id=":221640287_0" function="internal">
        <lane id=":221640287_0_0" index="0" allow="private emergency authority army vip passenger hov taxi bus coach delivery truck trailer motorcycle evehicle custom1 custom2" speed="25.00" length="0.29" shape="3982.89,1864.25 3983.19,1864.23"/>
    </edge>
    <edge id=":2423117136_0" function="internal">
        <lane id=":2423117136_0_0" index="0" allow="private emergency authority army vip passenger hov taxi bus coach delivery truck trailer motorcycle evehicle custom1 custom2" speed="27.78" length="8.17" shape="4437.19,1874.03 4434.85,1874.51 4433.33,1875.22 4431.81,1875.95 4429.48,1876.49"/>
        <lane id=":2423117136_0_1" index="1" allow="private emergency authority army vip passenger hov taxi bus coach delivery truck trailer motorcycle evehicle custom1 custom2" speed="27.78" length="8.17" shape="4437.19,1874.03 4434.78,1874.01 4433.13,1873.63 4431.48,1873.27 4429.08,1873.32"/>
    </edge>
    <edge id=":2445453526_0" function="internal">
        <lane id=":2445453526_0_0" index="0" allow="private emergency authority army vip passenger hov taxi bus coach delivery truck trailer motorcycle evehicle custom1 custom2" speed="22.22" length="15.79" shape="4669.70,1259.61 4668.69,1255.08 4668.11,1251.95 4667.38,1248.86 4665.94,1244.46"/>
        <lane id=":2445453526_0_1" index="1" allow="private emergency authority army vip passenger hov taxi bus coach delivery truck trailer motorcycle evehicle custom1 custom2" speed="22.22" length="15.79" shape="4672.80,1258.85 4671.77,1254.22 4671.17,1251.03 4670.42,1247.87 4668.96,1243.38"/>
    </edge>
    <edge id=":2584270289_0" function="internal">
        <lane id=":2584270289_0_0" index="0" allow="private emergency authority army vip passenger hov taxi bus coach delivery truck trailer motorcycle evehicle custom1 custom2" speed="39.44" length="8.01" shape="464.47,1077.78 471.30,1081.93"/>
        <lane id=":2584270289_0_1" index="1" allow="private emergency authority army vip passenger hov taxi bus coach delivery truck trailer motorcycle evehicle custom1 custom2" speed="39.44" length="8.01" shape="462.80,1080.51 469.64,1084.67"/>
        <lane id=":2584270289_0_2" index="2" allow="private emergency authority army vip passenger hov taxi bus coach delivery truck trailer motorcycle evehicle custom1 custom2" speed="39.44" length="8.01" shape="461.13,1083.24 467.99,1087.41"/>
    </edge>
    <edge id=":30249880_0" function="internal">
        <lane id=":30249880_0_0" index="0" allow="private emergency authority army vip passenger hov taxi bus coach delivery truck trailer motorcycle evehicle custom1 custom2" speed="39.44" length="8.20" shape="4131.58,1862.46 4134.00,1861.77 4135.46,1860.55 4136.91,1859.34 4139.34,1858.66"/>
        <lane id=":30249880_0_1" index="1" allow="private emergency authority army vip passenger hov taxi bus coach delivery truck trailer motorcycle evehicle custom1 custom2" speed="39.44" length="8.20" shape="4131.58,1862.46 4139.57,1861.85"/>
        <lane id=":30249880_0_2" index="2" allow="private emergency authority army vip passenger hov taxi bus coach delivery truck trailer motorcycle evehicle custom1 custom2" speed="39.44" length="8.20" shape="4131.83,1865.65 4139.80,1865.05"/>
        <lane id=":30249880_0_3" index="3" allow="private emergency authority army vip passenger hov taxi bus coach delivery truck trailer motorcycle evehicle custom1 custom2" speed="39.44" length="8.20" shape="4132.08,1868.84 4140.03,1868.24"/>
    </edge>
    <edge id=":30249929_0" function="internal">
        <lane id=":30249929_0_0" index="0" allow="private emergency authority army vip passenger hov taxi bus coach delivery truck trailer motorcycle evehicle custom1 custom2" speed="27.78" length="8.20" shape="3583.53,1937.83 3581.15,1938.21 3579.58,1938.84 3578.01,1939.47 3575.63,1939.84"/>
    </edge>
    <edge id=":30249931_0" function="internal">
        <lane id=":30249931_0_0" index="0" allow="private emergency authority army vip passenger hov taxi bus coach delivery truck trailer motorcycle evehicle custom1 custom2" speed="39.44" length="3.41" shape="3581.88,1901.98 3585.28,1901.78"/>
    </edge>
    <edge id=":30249931_1" function="internal">
        <lane id=":30249931_1_0" index="0" allow="private emergency authority army vip passenger hov taxi bus coach delivery truck trailer motorcycle evehicle custom1 custom2" speed="39.44" length="3.06" shape="3582.17,1905.17 3585.39,1904.92"/>
        <lane id=":30249931_1_1" index="1" allow="private emergency authority army vip passenger hov taxi bus coach delivery truck trailer motorcycle evehicle custom1 custom2" speed="39.44" length="3.06" shape="3582.45,1908.36 3585.50,1908.11"/>
        <lane id=":30249931_1_2" index="2" allow="private emergency authority army vip passenger hov taxi bus coach delivery truck trailer motorcycle evehicle custom1 custom2" speed="39.44" length="3.06" shape="3582.74,1911.54 3585.61,1911.31"/>
    </edge>
    <edge id=":30594968_0" function="internal">
        <lane id=":30594968_0_0" index="0" allow="private emergency authority army vip passenger hov taxi bus coach delivery truck trailer motorcycle evehicle custom1 custom2" speed="16.67" length="6.83" shape="4788.02,1787.55 4790.03,1787.88 4791.40,1788.12 4792.78,1788.23 4794.80,1788.18"/>
    </edge>
    <edge id=":30594968_1" function="internal">
        <lane id=":30594968_1_0" index="0" allow="private emergency authority army vip passenger hov taxi bus coach delivery truck trailer motorcycle evehicle custom1 custom2" speed="13.89" length="6.93" shape="4788.02,1791.09 4790.08,1791.02 4791.50,1791.19 4792.92,1791.37 4794.99,1791.38"/>
        <lane id=":30594968_1_1" index="1" allow="private emergency authority army vip passenger hov taxi bus coach delivery truck trailer motorcycle evehicle custom1 custom2" speed="13.89" length="6.93" shape="4788.32,1794.28 4790.35,1794.21 4791.74,1794.38 4793.14,1794.56 4795.17,1794.57"/>
    </edge>
    <edge id=":3122985705_0" function="internal">
        <lane id=":3122985705_0_0" index="0" allow="private emergency authority army vip passenger hov taxi bus coach delivery truck trailer motorcycle evehicle custom1 custom2" speed="39.44" length="8.00" shape="5480.76,1743.33 5488.74,1742.71"/>
        <lane id=":3122985705_0_1" index="1" allow="private emergency authority army vip passenger hov taxi bus coach delivery truck trailer motorcycle evehicle custom1 custom2" speed="39.44" length="8.00" shape="5481.02,1746.52 5488.99,1745.90"/>
    </edge>
    <edge id=":3283151145_0" function="internal">
        <lane id=":3283151145_0_0" index="0" allow="private emergency authority army vip passenger hov taxi bus coach delivery truck trailer motorcycle evehicle custom1 custom2" speed="22.22" length="15.29" shape="5176.94,2797.62 5176.20,2793.40 5175.29,2790.60 5173.99,2787.90 5172.12,2784.01"/>
        <lane id=":3283151145_0_1" index="1" allow="private emergency authority army vip passenger hov taxi bus coach delivery truck trailer motorcycle evehicle custom1 custom2" speed="22.22" length="15.29" shape="5176.94,2797.62 5176.66,2793.10 5176.78,2789.93 5176.50,2786.86 5175.03,2782.69"/>
        <lane id=":3283151145_0_2" index="2" allow="private emergency authority army vip passenger hov taxi bus coach delivery truck trailer motorcycle evehicle custom1 custom2" speed="22.22" length="15.29" shape="5180.11,2797.20 5179.79,2792.41 5179.87,2789.04 5179.53,2785.80 5177.94,2781.37"/>
    </edge>
    <edge id=":3909957404_0" function="internal">
        <lane id=":3909957404_0_0" index="0" allow="private emergency authority army vip passenger hov taxi bus coach delivery truck trailer motorcycle evehicle custom1 custom2" speed="30.83" length="0.30" shape="4783.27,1459.15 4783.37,1459.43"/>
    </edge>
    <edge id=":3909957411_0" function="internal">
        <lane id=":3909957411_0_0" index="0" allow="private emergency authority army vip passenger hov taxi bus coach delivery truck trailer motorcycle evehicle custom1 custom2" speed="13.89" length="0.10" shape="4978.41,1663.16 4978.41,1663.16"/>
    </edge>
    <edge id=":3909957422_0" function="internal">
        <lane id=":3909957422_0_0" index="0" allow="private emergency authority army vip passenger hov taxi bus coach delivery truck trailer motorcycle evehicle custom1 custom2" speed="25.00" length="0.29" shape="5864.66,1765.08 5864.35,1765.11"/>
        <lane id=":3909957422_0_1" index="1" allow="private emergency authority army vip passenger hov taxi bus coach delivery truck trailer motorcycle evehicle custom1 custom2" speed="25.00" length="0.29" shape="5864.39,1761.89 5864.12,1761.91"/>
    </edge>
    <edge id=":3909957440_0" function="internal">
        <lane id=":3909957440_0_0" index="0" allow="private emergency authority army vip passenger hov taxi bus coach delivery truck trailer motorcycle evehicle custom1 custom2" speed="19.45" length="1.62" shape="4394.92,1823.39 4395.33,1824.95"/>
        <lane id=":3909957440_0_1" index="1" allow="private emergency authority army vip passenger hov taxi bus coach delivery truck trailer motorcycle evehicle custom1 custom2" speed="19.45" length="1.62" shape="4395.16,1826.58 4395.58,1828.14"/>
    </edge>
    <edge id=":3909957788_0" function="internal">
        <lane id=":3909957788_0_0" index="0" allow="private emergency authority army vip passenger hov taxi bus coach delivery truck trailer motorcycle evehicle custom1 custom2" speed="22.22" length="0.28" shape="5096.21,2581.78 5096.19,2581.75 5096.18,2581.72 5096.17,2581.69 5096.16,2581.66"/>
        <lane id=":3909957788_0_1" index="1" allow="private emergency authority army vip passenger hov taxi bus coach delivery truck trailer motorcycle evehicle custom1 custom2" speed="22.22" length="0.28" shape="5099.23,2580.72 5099.18,2580.60 5099.15,2580.52 5099.12,2580.44 5099.07,2580.33"/>
    </edge>