<?xml version="1.0" encoding="UTF-8"?>

<!-- generated on Wed Apr  1 20:53:05 2020 by Eclipse SUMO duarouter Version 1.5.0
<configuration xmlns:xsi="http://www.w3.org/2001/XMLSchema-instance" xsi:noNamespaceSchemaLocation="http://sumo.dlr.de/xsd/duarouterConfiguration.xsd">

    <input>
        <net-file value="osm.net.xml"/>
        <route-files value="osm.passenger.trips.xml"/>
    </input>

    <output>
        <output-file value="osm.passenger.trips.xml.tmp"/>
        <write-trips value="true"/>
    </output>

    <time>
        <begin value="0"/>
        <end value="3600.0"/>
    </time>

    <report>
        <no-warnings value="true"/>
        <ignore-errors value="true"/>
        <no-step-log value="true"/>
    </report>

</configuration>
-->

<routes xmlns:xsi="http://www.w3.org/2001/XMLSchema-instance" xsi:noNamespaceSchemaLocation="http://sumo.dlr.de/xsd/routes_file.xsd">
    <vType id="veh_passenger" vClass="passenger"/>
    <trip id="veh0" type="veh_passenger" depart="0.00" departLane="best" departSpeed="max" from="387746812" to="-292740546"/>
    <trip id="veh1" type="veh_passenger" depart="4.00" departLane="best" departSpeed="max" from="23336695" to="153261740"/>
    <trip id="veh2" type="veh_passenger" depart="8.00" departLane="best" from="3993621" to="3993622"/>
    <trip id="veh5" type="veh_passenger" depart="20.00" departLane="best" from="132979567" to="152317816"/>
    <trip id="veh6" type="veh_passenger" depart="24.00" departLane="best" departSpeed="max" from="387746812" to="26529486"/>
    <trip id="veh7" type="veh_passenger" depart="28.00" departLane="best" from="23286373" to="332873361"/>
    <trip id="veh10" type="veh_passenger" depart="40.00" departLane="best" departSpeed="max" from="23336695" to="150169930"/>
    <trip id="veh15" type="veh_passenger" depart="60.00" departLane="best" departSpeed="max" from="358653882" to="545720224"/>
    <trip id="veh17" type="veh_passenger" depart="68.00" departLane="best" from="4728850" to="387746832"/>
    <trip id="veh21" type="veh_passenger" depart="84.00" departLane="best" from="153364495" to="153364495"/>
    <trip id="veh23" type="veh_passenger" depart="92.00" departLane="best" departSpeed="max" from="387746812" to="23286479"/>
    <trip id="veh25" type="veh_passenger" depart="100.00" departLane="best" departSpeed="max" from="23336695" to="545720221"/>
    <trip id="veh26" type="veh_passenger" depart="104.00" departLane="best" departSpeed="max" from="387746812" to="387746817"/>
    <trip id="veh27" type="veh_passenger" depart="108.00" departLane="best" departSpeed="max" from="20670230#0" to="3996919"/>
    <trip id="veh28" type="veh_passenger" depart="112.00" departLane="best" departSpeed="max" from="20670230#0" to="23286479"/>
    <trip id="veh29" type="veh_passenger" depart="116.00" departLane="best" from="94364182#1" to="39175424"/>
    <trip id="veh30" type="veh_passenger" depart="120.00" departLane="best" from="37976720" to="3996919"/>
    <trip id="veh33" type="veh_passenger" depart="132.00" departLane="best" departSpeed="max" from="23336695" to="20449464"/>
    <trip id="veh35" type="veh_passenger" depart="140.00" departLane="best" from="49430833" to="23286356"/>
    <trip id="veh36" type="veh_passenger" depart="144.00" departLane="best" from="387746817" to="23286479"/>
    <trip id="veh39" type="veh_passenger" depart="156.00" departLane="best" from="387746811" to="20449464"/>
    <trip id="veh40" type="veh_passenger" depart="160.00" departLane="best" departSpeed="max" from="387746812" to="4784417#0"/>
    <trip id="veh41" type="veh_passenger" depart="164.00" departLane="best" departSpeed="max" from="285112997" to="153261740"/>
    <trip id="veh42" type="veh_passenger" depart="168.00" departLane="best" from="94364185" to="23337422"/>
    <trip id="veh43" type="veh_passenger" depart="172.00" departLane="best" from="194765102" to="132979549"/>
    <trip id="veh45" type="veh_passenger" depart="180.00" departLane="best" departSpeed="max" from="4488584" to="23286479"/>
    <trip id="veh46" type="veh_passenger" depart="184.00" departLane="best" from="153261740" to="23286479"/>
    <trip id="veh47" type="veh_passenger" depart="188.00" departLane="best" from="94364184" to="234004932"/>
    <trip id="veh48" type="veh_passenger" depart="192.00" departLane="best" from="545720221" to="4496403"/>
    <trip id="veh49" type="veh_passenger" depart="196.00" departLane="best" from="132979547#0" to="3996919"/>
    <trip id="veh51" type="veh_passenger" depart="204.00" departLane="best" departSpeed="max" from="23336695" to="3993482"/>
    <trip id="veh52" type="veh_passenger" depart="208.00" departLane="best" from="20629597" to="23286479"/>
    <trip id="veh53" type="veh_passenger" depart="212.00" departLane="best" from="49203929" to="20449464"/>
    <trip id="veh54" type="veh_passenger" depart="216.00" departLane="best" departSpeed="max" from="358653882" to="150169930"/>
    <trip id="veh56" type="veh_passenger" depart="224.00" departLane="best" departSpeed="max" from="23336695" to="39175423"/>
    <trip id="veh57" type="veh_passenger" depart="228.00" departLane="best" from="4488571" to="236522916"/>
    <trip id="veh58" type="veh_passenger" depart="232.00" departLane="best" from="4488577" to="234004932"/>
    <trip id="veh60" type="veh_passenger" depart="240.00" departLane="best" from="132979558" to="49203929"/>
    <trip id="veh61" type="veh_passenger" depart="244.00" departLane="best" departSpeed="max" from="515553967" to="4488577"/>
    <trip id="veh62" type="veh_passenger" depart="248.00" departLane="best" departSpeed="max" from="23336695" to="132979565"/>
    <trip id="veh63" type="veh_passenger" depart="252.00" departLane="best" from="153368515" to="23337422"/>
    <trip id="veh64" type="veh_passenger" depart="256.00" departLane="best" from="153261740" to="3996919"/>
    <trip id="veh65" type="veh_passenger" depart="260.00" departLane="best" from="4488572" to="150169930"/>
    <trip id="veh66" type="veh_passenger" depart="264.00" departLane="best" departSpeed="max" from="358653882" to="307213473"/>
    <trip id="veh67" type="veh_passenger" depart="268.00" departLane="best" departSpeed="max" from="23336695" to="4746486"/>
    <trip id="veh68" type="veh_passenger" depart="272.00" departLane="best" departSpeed="max" from="292740546" to="153261739"/>
    <trip id="veh69" type="veh_passenger" depart="276.00" departLane="best" from="94364184" to="3993501"/>
    <trip id="veh70" type="veh_passenger" depart="280.00" departLane="best" from="307213473" to="23337422"/>
    <trip id="veh71" type="veh_passenger" depart="284.00" departLane="best" from="20645163" to="153261740"/>
    <trip id="veh72" type="veh_passenger" depart="288.00" departLane="best" departSpeed="max" from="23336695" to="332873361"/>
    <trip id="veh74" type="veh_passenger" depart="296.00" departLane="best" from="153261740" to="387746873"/>
    <trip id="veh75" type="veh_passenger" depart="300.00" departLane="best" from="23286376" to="4784424"/>
    <trip id="veh80" type="veh_passenger" depart="320.00" departLane="best" departSpeed="max" from="358653882" to="419865349"/>
    <trip id="veh81" type="veh_passenger" depart="324.00" departLane="best" from="4488588" to="150169931"/>
    <trip id="veh83" type="veh_passenger" depart="332.00" departLane="best" departSpeed="max" from="292740546" to="23337422"/>
    <trip id="veh84" type="veh_passenger" depart="336.00" departLane="best" from="3993620" to="3993621"/>
    <trip id="veh88" type="veh_passenger" depart="352.00" departLane="best" departSpeed="max" from="20670230#0" to="23336781"/>
    <trip id="veh91" type="veh_passenger" depart="364.00" departLane="best" departSpeed="max" from="358653882" to="132979552"/>
    <trip id="veh93" type="veh_passenger" depart="372.00" departLane="best" from="4784421" to="150169930"/>
    <trip id="veh94" type="veh_passenger" depart="376.00" departLane="best" departSpeed="max" from="358653882" to="153261739"/>
    <trip id="veh95" type="veh_passenger" depart="380.00" departLane="best" departSpeed="max" from="285112997" to="132979567"/>
    <trip id="veh100" type="veh_passenger" depart="400.00" departLane="best" from="37976720" to="3996919"/>
    <trip id="veh101" type="veh_passenger" depart="404.00" departLane="best" departSpeed="max" from="20670230#0" to="20670230#0"/>
    <trip id="veh103" type="veh_passenger" depart="412.00" departLane="best" from="153261739" to="332873359"/>
    <trip id="veh104" type="veh_passenger" depart="416.00" departLane="best" departSpeed="max" from="358653882" to="4492727"/>
    <trip id="veh105" type="veh_passenger" depart="420.00" departLane="best" departSpeed="max" from="20670230#0" to="545720223#0"/>
    <trip id="veh106" type="veh_passenger" depart="424.00" departLane="best" from="153364495" to="150169931"/>
    <trip id="veh107" type="veh_passenger" depart="428.00" departLane="best" departSpeed="max" from="387746812" to="3993621"/>
    <trip id="veh110" type="veh_passenger" depart="440.00" departLane="best" departSpeed="max" from="387746812" to="387746834"/>
    <trip id="veh111" type="veh_passenger" depart="444.00" departLane="best" departSpeed="max" from="292740546" to="332873359"/>
    <trip id="veh113" type="veh_passenger" depart="452.00" departLane="best" from="23286275" to="3996919"/>
    <trip id="veh114" type="veh_passenger" depart="456.00" departLane="best" from="23286426" to="23286479"/>
    <trip id="veh116" type="veh_passenger" depart="464.00" departLane="best" departSpeed="max" from="23336695" to="3996919"/>
    <trip id="veh118" type="veh_passenger" depart="472.00" departLane="best" from="153320423" to="153261739"/>
    <trip id="veh120" type="veh_passenger" depart="480.00" departLane="best" departSpeed="max" from="515553967" to="4780562"/>
    <trip id="veh121" type="veh_passenger" depart="484.00" departLane="best" from="234004960" to="150169930"/>
    <trip id="veh123" type="veh_passenger" depart="492.00" departLane="best" departSpeed="max" from="387746812" to="94364182#0"/>
    <trip id="veh124" type="veh_passenger" depart="496.00" departLane="best" from="387746817" to="-292740546"/>
    <trip id="veh126" type="veh_passenger" depart="504.00" departLane="best" from="387746832" to="545720223#0"/>
    <trip id="veh127" type="veh_passenger" depart="508.00" departLane="best" departSpeed="max" from="20670230#0" to="150169930"/>
    <trip id="veh130" type="veh_passenger" depart="520.00" departLane="best" from="3993501" to="152317817"/>
    <trip id="veh131" type="veh_passenger" depart="524.00" departLane="best" departSpeed="max" from="387746812" to="20449464"/>
    <trip id="veh132" type="veh_passenger" depart="528.00" departLane="best" departSpeed="max" from="358653882" to="4784424"/>
    <trip id="veh135" type="veh_passenger" depart="540.00" departLane="best" departSpeed="max" from="387746812" to="20449464"/>
    <trip id="veh136" type="veh_passenger" depart="544.00" departLane="best" from="153364495" to="4780562"/>
    <trip id="veh137" type="veh_passenger" depart="548.00" departLane="best" departSpeed="max" from="515553967" to="26529486"/>
    <trip id="veh139" type="veh_passenger" depart="556.00" departLane="best" departSpeed="max" from="20670230#0" to="150169930"/>
    <trip id="veh140" type="veh_passenger" depart="560.00" departLane="best" departSpeed="max" from="23336695" to="4784420"/>
    <trip id="veh142" type="veh_passenger" depart="568.00" departLane="best" departSpeed="max" from="515553967" to="153261739"/>
    <trip id="veh145" type="veh_passenger" depart="580.00" departLane="best" departSpeed="max" from="285112997" to="387746860"/>
    <trip id="veh146" type="veh_passenger" depart="584.00" departLane="best" departSpeed="max" from="20670230#0" to="49430833"/>
    <trip id="veh148" type="veh_passenger" depart="592.00" departLane="best" from="4488588" to="4780562"/>
    <trip id="veh149" type="veh_passenger" depart="596.00" departLane="best" from="132979567" to="3996919"/>
    <trip id="veh152" type="veh_passenger" depart="608.00" departLane="best" from="4488588" to="20449464"/>
    <trip id="veh154" type="veh_passenger" depart="616.00" departLane="best" from="4893840" to="4496403"/>
    <trip id="veh155" type="veh_passenger" depart="620.00" departLane="best" from="23286373" to="4488571"/>
    <trip id="veh156" type="veh_passenger" depart="624.00" departLane="best" from="332873362" to="23286237"/>
    <trip id="veh158" type="veh_passenger" depart="632.00" departLane="best" from="132979565" to="152317816"/>
    <trip id="veh161" type="veh_passenger" depart="644.00" departLane="best" departSpeed="max" from="387746812" to="23286479"/>
    <trip id="veh162" type="veh_passenger" depart="648.00" departLane="best" from="75436542" to="236522916"/>
    <trip id="veh163" type="veh_passenger" depart="652.00" departLane="best" departSpeed="max" from="529221158" to="150169930"/>
    <trip id="veh164" type="veh_passenger" depart="656.00" departLane="best" from="545720221" to="150169930"/>
    <trip id="veh166" type="veh_passenger" depart="664.00" departLane="best" from="20474240" to="23286479"/>
    <trip id="veh167" type="veh_passenger" depart="668.00" departLane="best" from="3993620" to="23286356"/>
    <trip id="veh168" type="veh_passenger" depart="672.00" departLane="best" departSpeed="max" from="387746812" to="23337422"/>
    <trip id="veh170" type="veh_passenger" depart="680.00" departLane="best" departSpeed="max" from="23336695" to="3996919"/>
    <trip id="veh174" type="veh_passenger" depart="696.00" departLane="best" departSpeed="max" from="23336695" to="4488588"/>
    <trip id="veh177" type="veh_passenger" depart="708.00" departLane="best" departSpeed="max" from="20670230#0" to="23286479"/>
    <trip id="veh179" type="veh_passenger" depart="716.00" departLane="best" departSpeed="max" from="515553967" to="387746825"/>
    <trip id="veh183" type="veh_passenger" depart="732.00" departLane="best" from="387746817" to="23337422"/>
    <trip id="veh184" type="veh_passenger" depart="736.00" departLane="best" from="307216717" to="153261739"/>
    <trip id="veh185" type="veh_passenger" depart="740.00" departLane="best" departSpeed="max" from="358653882" to="4784420"/>
    <trip id="veh187" type="veh_passenger" depart="748.00" departLane="best" from="153368515" to="23337422"/>
    <trip id="veh189" type="veh_passenger" depart="756.00" departLane="best" from="4496399" to="3996919"/>
    <trip id="veh194" type="veh_passenger" depart="776.00" departLane="best" departSpeed="max" from="285112997" to="387746873"/>
    <trip id="veh197" type="veh_passenger" depart="788.00" departLane="best" from="387746817" to="-292740546"/>
    <trip id="veh199" type="veh_passenger" depart="796.00" departLane="best" from="20474090" to="23286479"/>
    <trip id="veh200" type="veh_passenger" depart="800.00" departLane="best" departSpeed="max" from="20670230#0" to="545720223#0"/>
    <trip id="veh201" type="veh_passenger" depart="804.00" departLane="best" departSpeed="max" from="358653882" to="132979552"/>
    <trip id="veh203" type="veh_passenger" depart="812.00" departLane="best" from="332873361" to="4488569#0"/>
    <trip id="veh205" type="veh_passenger" depart="820.00" departLane="best" departSpeed="max" from="387746812" to="545720223#0"/>
    <trip id="veh206" type="veh_passenger" depart="824.00" departLane="best" departSpeed="max" from="515553967" to="387746818"/>
    <trip id="veh207" type="veh_passenger" depart="828.00" departLane="best" from="3993501" to="23337422"/>
    <trip id="veh209" type="veh_passenger" depart="836.00" departLane="best" departSpeed="max" from="515553967" to="3996919"/>
    <trip id="veh210" type="veh_passenger" depart="840.00" departLane="best" departSpeed="max" from="358653882" to="20449464"/>
    <trip id="veh212" type="veh_passenger" depart="848.00" departLane="best" from="4488572" to="23337422"/>
    <trip id="veh213" type="veh_passenger" depart="852.00" departLane="best" departSpeed="max" from="387746812" to="20474072"/>
    <trip id="veh215" type="veh_passenger" depart="860.00" departLane="best" departSpeed="max" from="23336695" to="23286356"/>
    <trip id="veh216" type="veh_passenger" depart="864.00" departLane="best" departSpeed="max" from="358653882" to="150169930"/>
    <trip id="veh219" type="veh_passenger" depart="876.00" departLane="best" departSpeed="max" from="285112997" to="152367113"/>
    <trip id="veh220" type="veh_passenger" depart="880.00" departLane="best" departSpeed="max" from="292740546" to="4784424"/>
    <trip id="veh221" type="veh_passenger" depart="884.00" departLane="best" departSpeed="max" from="387746812" to="3996919"/>
    <trip id="veh222" type="veh_passenger" depart="888.00" departLane="best" from="4784428" to="3996919"/>
    <trip id="veh224" type="veh_passenger" depart="896.00" departLane="best" from="23336787" to="3996919"/>
    <trip id="veh225" type="veh_passenger" depart="900.00" departLane="best" from="4784427" to="545720223#0"/>
    <trip id="veh226" type="veh_passenger" depart="904.00" departLane="best" departSpeed="max" from="292740546" to="3996919"/>
    <trip id="veh228" type="veh_passenger" depart="912.00" departLane="best" from="23286373" to="153261740"/>
    <trip id="veh229" type="veh_passenger" depart="916.00" departLane="best" from="307213473" to="-292740546"/>
    <trip id="veh230" type="veh_passenger" depart="920.00" departLane="best" departSpeed="max" from="23336695" to="3993622"/>
    <trip id="veh231" type="veh_passenger" depart="924.00" departLane="best" departSpeed="max" from="285112997" to="150169930"/>
    <trip id="veh232" type="veh_passenger" depart="928.00" departLane="best" departSpeed="max" from="358653882" to="150169930"/>
    <trip id="veh233" type="veh_passenger" depart="932.00" departLane="best" departSpeed="max" from="387746812" to="-292740546"/>
    <trip id="veh235" type="veh_passenger" depart="940.00" departLane="best" from="132979567" to="3993482"/>
    <trip id="veh238" type="veh_passenger" depart="952.00" departLane="best" from="4488571" to="23286479"/>
    <trip id="veh240" type="veh_passenger" depart="960.00" departLane="best" from="132979558" to="236522916"/>
    <trip id="veh241" type="veh_passenger" depart="964.00" departLane="best" from="94364185" to="23286447"/>
    <trip id="veh243" type="veh_passenger" depart="972.00" departLane="best" from="387746817" to="3996919"/>
    <trip id="veh245" type="veh_passenger" depart="980.00" departLane="best" from="132979558" to="150169930"/>
    <trip id="veh246" type="veh_passenger" depart="984.00" departLane="best" departSpeed="max" from="20670230#0" to="3993621"/>
    <trip id="veh247" type="veh_passenger" depart="988.00" departLane="best" departSpeed="max" from="387746812" to="153261740"/>
    <trip id="veh248" type="veh_passenger" depart="992.00" departLane="best" from="39175135" to="419865347"/>
    <trip id="veh251" type="veh_passenger" depart="1004.00" departLane="best" departSpeed="max" from="23336695" to="3993622"/>
    <trip id="veh256" type="veh_passenger" depart="1024.00" departLane="best" from="20645163" to="94364181"/>
    <trip id="veh257" type="veh_passenger" depart="1028.00" departLane="best" from="4488583" to="23286447"/>
    <trip id="veh258" type="veh_passenger" depart="1032.00" departLane="best" departSpeed="max" from="292740546" to="23286479"/>
    <trip id="veh259" type="veh_passenger" depart="1036.00" departLane="best" departSpeed="max" from="358653882" to="23286423"/>
    <trip id="veh260" type="veh_passenger" depart="1040.00" departLane="best" from="4784421" to="4488572"/>
    <trip id="veh261" type="veh_passenger" depart="1044.00" departLane="best" from="20474090" to="545720223#0"/>
    <trip id="veh262" type="veh_passenger" depart="1048.00" departLane="best" departSpeed="max" from="387746812" to="4488575"/>
    <trip id="veh263" type="veh_passenger" depart="1052.00" departLane="best" from="3993482" to="23286479"/>
    <trip id="veh264" type="veh_passenger" depart="1056.00" departLane="best" from="3993621" to="545720223#0"/>
    <trip id="veh265" type="veh_passenger" depart="1060.00" departLane="best" departSpeed="max" from="23336695" to="4488569#0"/>
    <trip id="veh266" type="veh_passenger" depart="1064.00" departLane="best" departSpeed="max" from="358653882" to="23337422"/>
    <trip id="veh267" type="veh_passenger" depart="1068.00" departLane="best" from="307213473" to="3996919"/>
    <trip id="veh268" type="veh_passenger" depart="1072.00" departLane="best" departSpeed="max" from="23336695" to="4492727"/>
    <trip id="veh273" type="veh_passenger" depart="1092.00" departLane="best" from="4784424" to="150169930"/>
    <trip id="veh275" type="veh_passenger" depart="1100.00" departLane="best" departSpeed="max" from="23336695" to="4780562"/>
    <trip id="veh277" type="veh_passenger" depart="1108.00" departLane="best" from="132979547#0" to="545720223#0"/>
    <trip id="veh278" type="veh_passenger" depart="1112.00" departLane="best" from="153368515" to="3996919"/>
    <trip id="veh279" type="veh_passenger" depart="1116.00" departLane="best" from="387746862" to="3993482"/>
    <trip id="veh280" type="veh_passenger" depart="1120.00" departLane="best" departSpeed="max" from="358653882" to="4488561"/>
    <trip id="veh281" type="veh_passenger" depart="1124.00" departLane="best" from="194765102" to="153261740"/>
    <trip id="veh282" type="veh_passenger" depart="1128.00" departLane="best" from="387746862" to="23286266"/>
    <trip id="veh283" type="veh_passenger" depart="1132.00" departLane="best" departSpeed="max" from="387746812" to="23337422"/>
    <trip id="veh284" type="veh_passenger" depart="1136.00" departLane="best" departSpeed="max" from="358653882" to="23286479"/>
    <trip id="veh286" type="veh_passenger" depart="1144.00" departLane="best" from="39175424" to="20449464"/>
    <trip id="veh288" type="veh_passenger" depart="1152.00" departLane="best" departSpeed="max" from="20670230#0" to="150169930"/>
    <trip id="veh289" type="veh_passenger" depart="1156.00" departLane="best" departSpeed="max" from="20670230#0" to="153261739"/>
    <trip id="veh290" type="veh_passenger" depart="1160.00" departLane="best" from="705713551" to="23337422"/>
    <trip id="veh293" type="veh_passenger" depart="1172.00" departLane="best" departSpeed="max" from="20670230#0" to="-292740546"/>
    <trip id="veh294" type="veh_passenger" depart="1176.00" departLane="best" departSpeed="max" from="358653882" to="20474072"/>
    <trip id="veh295" type="veh_passenger" depart="1180.00" departLane="best" from="545720224" to="307216717"/>
    <trip id="veh296" type="veh_passenger" depart="1184.00" departLane="best" from="4893840" to="23337422"/>
    <trip id="veh298" type="veh_passenger" depart="1192.00" departLane="best" departSpeed="max" from="358653882" to="23286479"/>
    <trip id="veh299" type="veh_passenger" depart="1196.00" departLane="best" departSpeed="max" from="20670230#0" to="132979552"/>
    <trip id="veh301" type="veh_passenger" depart="1204.00" departLane="best" from="4496403" to="23286479"/>
    <trip id="veh302" type="veh_passenger" depart="1208.00" departLane="best" from="152367113" to="150169930"/>
    <trip id="veh304" type="veh_passenger" depart="1216.00" departLane="best" from="94364184" to="150169930"/>
    <trip id="veh307" type="veh_passenger" depart="1228.00" departLane="best" departSpeed="max" from="358653882" to="23336781"/>
    <trip id="veh308" type="veh_passenger" depart="1232.00" departLane="best" from="307216717" to="4496403"/>
    <trip id="veh309" type="veh_passenger" depart="1236.00" departLane="best" from="94364182#1" to="23286237"/>
    <trip id="veh310" type="veh_passenger" depart="1240.00" departLane="best" departSpeed="max" from="387746812" to="387746817"/>
    <trip id="veh313" type="veh_passenger" depart="1252.00" departLane="best" from="387746818" to="150169930"/>
    <trip id="veh315" type="veh_passenger" depart="1260.00" departLane="best" from="108035020" to="23336781"/>
    <trip id="veh319" type="veh_passenger" depart="1276.00" departLane="best" from="387746861" to="4893840"/>
    <trip id="veh322" type="veh_passenger" depart="1288.00" departLane="best" departSpeed="max" from="292740546" to="26529486"/>
    <trip id="veh323" type="veh_passenger" depart="1292.00" departLane="best" departSpeed="max" from="387746812" to="4784427"/>
    <trip id="veh325" type="veh_passenger" depart="1300.00" departLane="best" departSpeed="max" from="20670230#0" to="23286266"/>
    <trip id="veh327" type="veh_passenger" depart="1308.00" departLane="best" departSpeed="max" from="23336695" to="150169930"/>
    <trip id="veh328" type="veh_passenger" depart="1312.00" departLane="best" from="387746861" to="3996919"/>
    <trip id="veh332" type="veh_passenger" depart="1328.00" departLane="best" departSpeed="max" from="23336695" to="20435734"/>
    <trip id="veh333" type="veh_passenger" depart="1332.00" departLane="best" from="194765102" to="545720223#0"/>
    <trip id="veh338" type="veh_passenger" depart="1352.00" departLane="best" departSpeed="max" from="358653882" to="3993501"/>
    <trip id="veh339" type="veh_passenger" depart="1356.00" departLane="best" from="529221157" to="150169930"/>
    <trip id="veh340" type="veh_passenger" depart="1360.00" departLane="best" departSpeed="max" from="387746812" to="387746881"/>
    <trip id="veh344" type="veh_passenger" depart="1376.00" departLane="best" departSpeed="max" from="23336695" to="3996919"/>
    <trip id="veh345" type="veh_passenger" depart="1380.00" departLane="best" departSpeed="max" from="23336695" to="545720223#0"/>
    <trip id="veh348" type="veh_passenger" depart="1392.00" departLane="best" departSpeed="max" from="23336695" to="545720223#0"/>
    <trip id="veh349" type="veh_passenger" depart="1396.00" departLane="best" departSpeed="max" from="285112997" to="23337422"/>
    <trip id="veh350" type="veh_passenger" depart="1400.00" departLane="best" from="94364182#0" to="3993502"/>
    <trip id="veh351" type="veh_passenger" depart="1404.00" departLane="best" departSpeed="max" from="358653882" to="23286479"/>
    <trip id="veh352" type="veh_passenger" depart="1408.00" departLane="best" departSpeed="max" from="20670230#0" to="23286479"/>
    <trip id="veh354" type="veh_passenger" depart="1416.00" departLane="best" from="4488563" to="152317817"/>
    <trip id="veh355" type="veh_passenger" depart="1420.00" departLane="best" departSpeed="max" from="358653882" to="49203929"/>
    <trip id="veh356" type="veh_passenger" depart="1424.00" departLane="best" from="307213473" to="3996919"/>
    <trip id="veh357" type="veh_passenger" depart="1428.00" departLane="best" from="20645163" to="545720224"/>
    <trip id="veh359" type="veh_passenger" depart="1436.00" departLane="best" departSpeed="max" from="20670230#0" to="307213473"/>
    <trip id="veh361" type="veh_passenger" depart="1444.00" departLane="best" from="94364182#1" to="4784428"/>
    <trip id="veh362" type="veh_passenger" depart="1448.00" departLane="best" from="332873362" to="150169930"/>
    <trip id="veh363" type="veh_passenger" depart="1452.00" departLane="best" from="4728850" to="23337422"/>
    <trip id="veh364" type="veh_passenger" depart="1456.00" departLane="best" from="3993501" to="23337422"/>
    <trip id="veh365" type="veh_passenger" depart="1460.00" departLane="best" departSpeed="max" from="23336695" to="4488577"/>
    <trip id="veh367" type="veh_passenger" depart="1468.00" departLane="best" departSpeed="max" from="358653882" to="23286479"/>
    <trip id="veh370" type="veh_passenger" depart="1480.00" departLane="best" departSpeed="max" from="23336695" to="4488560#0"/>
    <trip id="veh372" type="veh_passenger" depart="1488.00" departLane="best" departSpeed="max" from="358653882" to="4488571"/>
    <trip id="veh374" type="veh_passenger" depart="1496.00" departLane="best" departSpeed="max" from="387746812" to="94364185"/>
    <trip id="veh375" type="veh_passenger" depart="1500.00" departLane="best" departSpeed="max" from="358653882" to="150169930"/>
    <trip id="veh376" type="veh_passenger" depart="1504.00" departLane="best" departSpeed="max" from="358653882" to="23286426"/>
    <trip id="veh377" type="veh_passenger" depart="1508.00" departLane="best" departSpeed="max" from="358653882" to="26529486"/>
    <trip id="veh379" type="veh_passenger" depart="1516.00" departLane="best" departSpeed="max" from="20670230#0" to="3996919"/>
    <trip id="veh380" type="veh_passenger" depart="1520.00" departLane="best" departSpeed="max" from="387746812" to="153364495"/>
    <trip id="veh384" type="veh_passenger" depart="1536.00" departLane="best" from="387746832" to="4488571"/>
    <trip id="veh385" type="veh_passenger" depart="1540.00" departLane="best" from="75436542" to="23337422"/>
    <trip id="veh387" type="veh_passenger" depart="1548.00" departLane="best" departSpeed="max" from="387746812" to="4746486"/>
    <trip id="veh388" type="veh_passenger" depart="1552.00" departLane="best" from="49203929" to="23286479"/>
    <trip id="veh389" type="veh_passenger" depart="1556.00" departLane="best" departSpeed="max" from="358653882" to="23336787"/>
    <trip id="veh391" type="veh_passenger" depart="1564.00" departLane="best" from="387746817" to="150169930"/>
    <trip id="veh392" type="veh_passenger" depart="1568.00" departLane="best" departSpeed="max" from="358653882" to="545720223#0"/>
    <trip id="veh393" type="veh_passenger" depart="1572.00" departLane="best" departSpeed="max" from="23336695" to="3996919"/>
    <trip id="veh394" type="veh_passenger" depart="1576.00" departLane="best" departSpeed="max" from="387746812" to="4492727"/>
    <trip id="veh396" type="veh_passenger" depart="1584.00" departLane="best" from="3993501" to="3996919"/>
    <trip id="veh397" type="veh_passenger" depart="1588.00" departLane="best" from="153261740" to="387746873"/>
    <trip id="veh399" type="veh_passenger" depart="1596.00" departLane="best" from="4488554" to="23286479"/>