<?xml version="1.0" encoding="UTF-8"?>

<!-- generated on Mi 01 Apr 2020 20:48:49 CEST by Eclipse SUMO netedit Version 1.5.0
<configuration xmlns:xsi="http://www.w3.org/2001/XMLSchema-instance" xsi:noNamespaceSchemaLocation="http://sumo.dlr.de/xsd/netconvertConfiguration.xsd">

    <input>
        <sumo-net-file value="/home/niels/git/sumo/tools/2020-04-01-20-22-20/osm.net.xml"/>
    </input>

    <output>
        <output-file value="/home/niels/git/sumo/tools/2020-04-01-20-22-20/osm.net.xml"/>
        <output.street-names value="true"/>
    </output>

    <processing>
        <geometry.min-radius.fix.railways value="false"/>
        <geometry.max-grade.fix value="false"/>
        <offset.disable-normalization value="true"/>
        <lefthand value="false"/>
    </processing>

    <junctions>
        <no-turnarounds value="true"/>
        <junctions.corner-detail value="5"/>
        <junctions.limit-turn-speed value="5.5"/>
        <rectangular-lane-cut value="false"/>
    </junctions>

    <pedestrian>
        <walkingareas value="false"/>
    </pedestrian>

    <netedit>
        <route-files value="/home/niels/git/sumo/tools/2020-04-01-20-22-20/routes.rou.xml"/>
    </netedit>

    <report>
        <aggregate-warnings value="5"/>
    </report>

</configuration>
-->

<net version="1.3" junctionCornerDetail="5" limitTurnSpeed="5.50" xmlns:xsi="http://www.w3.org/2001/XMLSchema-instance" xsi:noNamespaceSchemaLocation="http://sumo.dlr.de/xsd/net_file.xsd">

    <location netOffset="-466786.44,-5542770.58" convBoundary="241.28,293.60,10900.81,3270.55" origBoundary="8.535996,50.027354,8.702578,50.082421" projParameter="+proj=utm +zone=32 +ellps=WGS84 +datum=WGS84 +units=m +no_defs"/>

    <type id="highway.bridleway" priority="1" numLanes="1" speed="2.78" allow="pedestrian" oneway="1" width="2.00"/>
    <type id="highway.bus_guideway" priority="1" numLanes="1" speed="27.78" allow="bus" oneway="1"/>
    <type id="highway.cycleway" priority="1" numLanes="1" speed="8.33" allow="bicycle" oneway="0" width="1.00"/>
    <type id="highway.footway" priority="1" numLanes="1" speed="2.78" allow="pedestrian" oneway="1" width="2.00"/>
    <type id="highway.ford" priority="1" numLanes="1" speed="2.78" allow="army" oneway="0"/>
    <type id="highway.living_street" priority="2" numLanes="1" speed="2.78" disallow="tram rail_urban rail rail_electric rail_fast ship" oneway="0"/>
    <type id="highway.motorway" priority="14" numLanes="2" speed="39.44" allow="private emergency authority army vip passenger hov taxi bus coach delivery truck trailer motorcycle evehicle custom1 custom2" oneway="1"/>
    <type id="highway.motorway_link" priority="9" numLanes="1" speed="22.22" allow="private emergency authority army vip passenger hov taxi bus coach delivery truck trailer motorcycle evehicle custom1 custom2" oneway="1"/>
    <type id="highway.path" priority="1" numLanes="1" speed="2.78" allow="pedestrian bicycle" oneway="1" width="2.00"/>
    <type id="highway.pedestrian" priority="1" numLanes="1" speed="2.78" allow="pedestrian" oneway="1" width="2.00"/>
    <type id="highway.primary" priority="12" numLanes="2" speed="27.78" disallow="tram rail_urban rail rail_electric rail_fast ship" oneway="0"/>
    <type id="highway.primary_link" priority="7" numLanes="1" speed="22.22" disallow="tram rail_urban rail rail_electric rail_fast ship" oneway="0"/>
    <type id="highway.raceway" priority="15" numLanes="2" speed="83.33" allow="vip" oneway="0"/>
    <type id="highway.residential" priority="3" numLanes="1" speed="13.89" disallow="tram rail_urban rail rail_electric rail_fast ship" oneway="0"/>
    <type id="highway.secondary" priority="11" numLanes="1" speed="27.78" disallow="tram rail_urban rail rail_electric rail_fast ship" oneway="0"/>
    <type id="highway.secondary_link" priority="6" numLanes="1" speed="22.22" disallow="tram rail_urban rail rail_electric rail_fast ship" oneway="0"/>
    <type id="highway.service" priority="1" numLanes="1" speed="5.56" allow="pedestrian delivery bicycle" oneway="0"/>
    <type id="highway.stairs" priority="1" numLanes="1" speed="1.39" allow="pedestrian" oneway="1" width="2.00"/>
    <type id="highway.step" priority="1" numLanes="1" speed="1.39" allow="pedestrian" oneway="1" width="2.00"/>
    <type id="highway.steps" priority="1" numLanes="1" speed="1.39" allow="pedestrian" oneway="1" width="2.00"/>
    <type id="highway.tertiary" priority="10" numLanes="1" speed="22.22" disallow="tram rail_urban rail rail_electric rail_fast ship" oneway="0"/>
    <type id="highway.tertiary_link" priority="5" numLanes="1" speed="22.22" disallow="tram rail_urban rail rail_electric rail_fast ship" oneway="0"/>
    <type id="highway.track" priority="1" numLanes="1" speed="5.56" disallow="tram rail_urban rail rail_electric rail_fast ship" oneway="0"/>
    <type id="highway.trunk" priority="13" numLanes="2" speed="27.78" disallow="pedestrian bicycle tram rail_urban rail rail_electric rail_fast ship" oneway="0"/>
    <type id="highway.trunk_link" priority="8" numLanes="1" speed="22.22" disallow="pedestrian bicycle tram rail_urban rail rail_electric rail_fast ship" oneway="0"/>
    <type id="highway.unclassified" priority="4" numLanes="1" speed="13.89" disallow="tram rail_urban rail rail_electric rail_fast ship" oneway="0"/>
    <type id="highway.unsurfaced" priority="1" numLanes="1" speed="8.33" disallow="tram rail_urban rail rail_electric rail_fast ship" oneway="0"/>
    <type id="railway.highspeed" priority="21" numLanes="1" speed="69.44" allow="rail_fast" oneway="1"/>
    <type id="railway.light_rail" priority="19" numLanes="1" speed="27.78" allow="rail_urban" oneway="1"/>
    <type id="railway.preserved" priority="16" numLanes="1" speed="27.78" allow="rail" oneway="1"/>
    <type id="railway.rail" priority="20" numLanes="1" speed="44.44" allow="rail" oneway="1"/>
    <type id="railway.subway" priority="18" numLanes="1" speed="27.78" allow="rail_urban" oneway="1"/>
    <type id="railway.tram" priority="17" numLanes="1" speed="13.89" allow="tram" oneway="1"/>

    <edge id=":1136591142_0" function="internal">
        <lane id=":1136591142_0_0" index="0" allow="private emergency authority army vip passenger hov taxi bus coach delivery truck trailer motorcycle evehicle custom1 custom2" speed="16.66" length="14.10" shape="5100.13,2413.30 5101.67,2417.46 5103.21,2420.41 5104.86,2422.90 5106.74,2425.66"/>
    </edge>
    <edge id=":1136591142_1" function="internal">
        <lane id=":1136591142_1_0" index="0" allow="private emergency authority army vip passenger hov taxi bus coach delivery truck trailer motorcycle evehicle custom1 custom2" speed="22.22" length="14.46" shape="5097.08,2414.25 5098.69,2418.55 5100.24,2421.65 5101.67,2424.35 5102.91,2427.46"/>
    </edge>
    <edge id=":1227950915_0" function="internal">
        <lane id=":1227950915_0_0" index="0" allow="private emergency authority army vip passenger hov taxi bus coach delivery truck trailer motorcycle evehicle custom1 custom2" speed="19.45" length="0.10" shape="4702.20,1658.93 4702.20,1658.93"/>
    </edge>
    <edge id=":1227950941_0" function="internal">
        <lane id=":1227950941_0_0" index="0" allow="private emergency authority army vip passenger hov taxi bus coach delivery truck trailer motorcycle evehicle custom1 custom2" speed="22.22" length="8.21" shape="4803.42,1477.23 4804.83,1479.19 4806.10,1480.31 4807.37,1481.43 4808.77,1483.39"/>
        <lane id=":1227950941_0_1" index="1" allow="private emergency authority army vip passenger hov taxi bus coach delivery truck trailer motorcycle evehicle custom1 custom2" speed="22.22" length="8.21" shape="4803.42,1477.23 4804.39,1479.43 4804.71,1481.10 4805.02,1482.76 4805.99,1484.97"/>
    </edge>
    <edge id=":1227950973_0" function="internal">
        <lane id=":1227950973_0_0" index="0" allow="private emergency authority army vip passenger hov taxi bus coach delivery truck trailer motorcycle evehicle custom1 custom2" speed="30.83" length="0.10" shape="4792.14,1457.56 4792.14,1457.56"/>
    </edge>
    <edge id=":1227951071_0" function="internal">
        <lane id=":1227951071_0_0" index="0" allow="private emergency authority army vip passenger hov taxi bus coach delivery truck trailer motorcycle evehicle custom1 custom2" speed="22.22" length="7.97" shape="5013.66,2184.67 5015.00,2192.56"/>
        <lane id=":1227951071_0_1" index="1" allow="private emergency authority army vip passenger hov taxi bus coach delivery truck trailer motorcycle evehicle custom1 custom2" speed="22.22" length="7.97" shape="5010.51,2185.23 5011.84,2193.06"/>
    </edge>
    <edge id=":1227951074_0" function="internal">
        <lane id=":1227951074_0_0" index="0" allow="private emergency authority army vip passenger hov taxi bus coach delivery truck trailer motorcycle evehicle custom1 custom2" speed="19.45" length="0.10" shape="5010.10,1749.05 5010.10,1749.05"/>
    </edge>
    <edge id=":1231339384_0" function="internal">
        <lane id=":1231339384_0_0" index="0" disallow="tram rail_urban rail rail_electric rail_fast ship" speed="22.23" length="0.29" shape="8011.72,2284.59 8011.72,2284.90"/>
        <lane id=":1231339384_0_1" index="1" disallow="tram rail_urban rail rail_electric rail_fast ship" speed="22.23" length="0.29" shape="8008.52,2284.58 8008.52,2284.85"/>
    </edge>
    <edge id=":1231339592_0" function="internal">
        <lane id=":1231339592_0_0" index="0" allow="private emergency authority army vip passenger hov taxi bus coach delivery truck trailer motorcycle evehicle custom1 custom2" speed="22.22" length="6.90" shape="8143.50,2448.29 8145.31,2447.54 8146.37,2446.64 8147.39,2445.64 8149.10,2444.60"/>
        <lane id=":1231339592_0_1" index="1" allow="private emergency authority army vip passenger hov taxi bus coach delivery truck trailer motorcycle evehicle custom1 custom2" speed="22.22" length="6.90" shape="8143.50,2448.29 8145.55,2447.99 8147.03,2448.10 8148.47,2448.12 8150.41,2447.52"/>
    </edge>
    <edge id=":1231340125_0" function="internal">
        <lane id=":1231340125_0_0" index="0" disallow="tram rail_urban rail rail_electric rail_fast ship" speed="22.23" length="0.23" shape="7941.35,2055.25 7941.37,2055.14"/>
        <lane id=":1231340125_0_1" index="1" disallow="tram rail_urban rail rail_electric rail_fast ship" speed="22.23" length="0.23" shape="7944.51,2055.79 7944.55,2055.45"/>
    </edge>
    <edge id=":1231340219_0" function="internal">
        <lane id=":1231340219_0_0" index="0" allow="private emergency authority army vip passenger hov taxi bus coach delivery truck trailer motorcycle evehicle custom1 custom2" speed="30.83" length="7.80" shape="8309.38,2513.99 8311.04,2515.55 8312.45,2516.31 8313.91,2517.01 8315.73,2518.43"/>
    </edge>
    <edge id=":1234854641_0" function="internal">
        <lane id=":1234854641_0_0" index="0" allow="private emergency authority army vip passenger hov taxi bus coach delivery truck trailer motorcycle evehicle custom1 custom2" speed="39.44" length="7.91" shape="2830.12,1895.84 2822.28,1894.17"/>
        <lane id=":1234854641_0_1" index="1" allow="private emergency authority army vip passenger hov taxi bus coach delivery truck trailer motorcycle evehicle custom1 custom2" speed="39.44" length="7.91" shape="2830.73,1892.70 2823.00,1891.05"/>
        <lane id=":1234854641_0_2" index="2" allow="private emergency authority army vip passenger hov taxi bus coach delivery truck trailer motorcycle evehicle custom1 custom2" speed="39.44" length="7.91" shape="2831.35,1889.56 2823.72,1887.93"/>
    </edge>
    <edge id=":1240272390_0" function="internal">
        <lane id=":1240272390_0_0" index="0" allow="private emergency authority army vip passenger hov taxi bus coach delivery truck trailer motorcycle evehicle custom1 custom2" speed="33.61" length="0.30" shape="3803.39,1878.02 3803.69,1878.00"/>
    </edge>
    <edge id=":1624321910_0" function="internal">
        <lane id=":1624321910_0_0" index="0" allow="private emergency authority army vip passenger hov taxi bus coach delivery truck trailer motorcycle evehicle custom1 custom2" speed="22.22" length="7.70" shape="901.20,1393.48 899.22,1392.54 897.70,1392.28 896.14,1392.09 894.05,1391.36"/>
        <lane id=":1624321910_0_1" index="1" allow="private emergency authority army vip passenger hov taxi bus coach delivery truck trailer motorcycle evehicle custom1 custom2" speed="22.22" length="7.70" shape="902.90,1390.77 900.83,1389.77 899.25,1389.48 897.62,1389.26 895.43,1388.48"/>
    </edge>
    <edge id=":1631018189_0" function="internal">
        <lane id=":1631018189_0_0" index="0" allow="private emergency authority army vip passenger hov taxi bus coach delivery truck trailer motorcycle evehicle custom1 custom2" speed="39.44" length="8.21" shape="448.75,1097.57 446.85,1096.09 445.77,1094.78 444.70,1093.47 442.79,1091.99"/>
        <lane id=":1631018189_0_1" index="1" allow="private emergency authority army vip passenger hov taxi bus coach delivery truck trailer motorcycle evehicle custom1 custom2" speed="39.44" length="8.21" shape="450.44,1094.84 448.53,1093.37 447.46,1092.06 446.39,1090.75 444.48,1089.27"/>
        <lane id=":1631018189_0_2" index="2" allow="private emergency authority army vip passenger hov taxi bus coach delivery truck trailer motorcycle evehicle custom1 custom2" speed="39.44" length="8.21" shape="452.12,1092.12 450.22,1090.65 449.15,1089.34 448.07,1088.03 446.17,1086.55"/>
        <lane id=":1631018189_0_3" index="3" allow="private emergency authority army vip passenger hov taxi bus coach delivery truck trailer motorcycle evehicle custom1 custom2" speed="39.44" length="8.21" shape="453.81,1089.40 451.90,1087.93 450.83,1086.62 449.76,1085.31 447.86,1083.83"/>
    </edge>
    <edge id=":1651886784_0" function="internal">
        <lane id=":1651886784_0_0" index="0" allow="private emergency authority army vip passenger hov taxi bus coach delivery truck trailer motorcycle evehicle custom1 custom2" speed="15.28" length="0.29" shape="3911.92,1827.94 3912.19,1827.92"/>
        <lane id=":1651886784_0_1" index="1" allow="private emergency authority army vip passenger hov taxi bus coach delivery truck trailer motorcycle evehicle custom1 custom2" speed="15.28" length="0.29" shape="3912.05,1831.13 3912.36,1831.12"/>
    </edge>
    <edge id=":1651886801_0" function="internal">
        <lane id=":1651886801_0_0" index="0" allow="private emergency authority army vip passenger hov taxi bus coach delivery truck trailer motorcycle evehicle custom1 custom2" speed="39.44" length="7.97" shape="4381.12,1844.34 4388.96,1843.80"/>
        <lane id=":1651886801_0_1" index="1" allow="private emergency authority army vip passenger hov taxi bus coach delivery truck trailer motorcycle evehicle custom1 custom2" speed="39.44" length="7.97" shape="4381.28,1847.54 4389.24,1846.99"/>
        <lane id=":1651886801_0_2" index="2" allow="private emergency authority army vip passenger hov taxi bus coach delivery truck trailer motorcycle evehicle custom1 custom2" speed="39.44" length="7.97" shape="4381.45,1850.73 4389.51,1850.18"/>
    </edge>
    <edge id=":1660725081_0" function="internal">
        <lane id=":1660725081_0_0" index="0" allow="private emergency authority army vip passenger hov taxi bus coach delivery truck trailer motorcycle evehicle custom1 custom2" speed="39.44" length="8.80" shape="7382.01,2138.61 7384.46,2139.15 7386.32,2138.76 7388.17,2138.39 7390.62,2138.93"/>
        <lane id=":1660725081_0_1" index="1" allow="private emergency authority army vip passenger hov taxi bus coach delivery truck trailer motorcycle evehicle custom1 custom2" speed="39.44" length="8.80" shape="7380.71,2141.53 7383.17,2142.07 7385.02,2141.69 7386.87,2141.31 7389.32,2141.85"/>
        <lane id=":1660725081_0_2" index="2" allow="private emergency authority army vip passenger hov taxi bus coach delivery truck trailer motorcycle evehicle custom1 custom2" speed="39.44" length="8.80" shape="7379.42,2144.46 7381.87,2145.00 7383.72,2144.61 7385.57,2144.23 7388.02,2144.78"/>
        <lane id=":1660725081_0_3" index="3" allow="private emergency authority army vip passenger hov taxi bus coach delivery truck trailer motorcycle evehicle custom1 custom2" speed="39.44" length="8.80" shape="7378.12,2147.38 7380.57,2147.92 7382.42,2147.54 7384.27,2147.16 7386.72,2147.70"/>
    </edge>
    <edge id=":1685253337_0" function="internal">
        <lane id=":1685253337_0_0" index="0" allow="private emergency authority army vip passenger hov taxi bus coach delivery truck trailer motorcycle evehicle custom1 custom2" speed="22.22" length="8.51" shape="4718.57,1451.68 4716.29,1443.47"/>
    </edge>
    <edge id=":1685253337_1" function="internal">
        <lane id=":1685253337_1_0" index="0" allow="private emergency authority army vip passenger hov taxi bus coach delivery truck trailer motorcycle evehicle custom1 custom2" speed="22.22" length="8.22" shape="4721.73,1450.61 4720.92,1448.31 4720.41,1446.72 4719.97,1445.11 4719.40,1442.74"/>
    </edge>
    <edge id=":1685253762_0" function="internal">
        <lane id=":1685253762_0_0" index="0" allow="private emergency authority army vip passenger hov taxi bus coach delivery truck trailer motorcycle evehicle custom1 custom2" speed="16.67" length="0.29" shape="5008.81,1686.48 5008.62,1686.26"/>
    </edge>
    <edge id=":1685254024_0" function="internal">
        <lane id=":1685254024_0_0" index="0" allow="private emergency authority army vip passenger hov taxi bus coach delivery truck trailer motorcycle evehicle custom1 custom2" speed="30.83" length="0.28" shape="5091.06,1769.74 5091.37,1769.73"/>
        <lane id=":1685254024_0_1" index="1" allow="private emergency authority army vip passenger hov taxi bus coach delivery truck trailer motorcycle evehicle custom1 custom2" speed="30.83" length="0.28" shape="5091.16,1772.93 5091.42,1772.93"/>
    </edge>
    <edge id=":1685254138_0" function="internal">
        <lane id=":1685254138_0_0" index="0" allow="private emergency authority army vip passenger hov taxi bus coach delivery truck trailer motorcycle evehicle custom1 custom2" speed="19.45" length="1.63" shape="4829.41,1786.14 4829.52,1784.53"/>
        <lane id=":1685254138_0_1" index="1" allow="private emergency authority army vip passenger hov taxi bus coach delivery truck trailer motorcycle evehicle custom1 custom2" speed="19.45" length="1.63" shape="4829.60,1789.34 4829.77,1787.72"/>
        <lane id=":1685254138_0_2" index="2" allow="private emergency authority army vip passenger hov taxi bus coach delivery truck trailer motorcycle evehicle custom1 custom2" speed="19.45" length="1.63" shape="4829.79,1792.53 4830.02,1790.91"/>
    </edge>
    <edge id=":1685255172_0" function="internal">
        <lane id=":1685255172_0_0" index="0" allow="private emergency authority army vip passenger hov taxi bus coach delivery truck trailer motorcycle evehicle custom1 custom2" speed="22.22" length="8.01" shape="4855.34,1881.45 4853.05,1873.70"/>
        <lane id=":1685255172_0_1" index="1" allow="private emergency authority army vip passenger hov taxi bus coach delivery truck trailer motorcycle evehicle custom1 custom2" speed="22.22" length="8.01" shape="4858.37,1880.41 4856.12,1872.80"/>
    </edge>
    <edge id=":1685255172_2" function="internal">
        <lane id=":1685255172_2_0" index="0" allow="private emergency authority army vip passenger hov taxi bus coach delivery truck trailer motorcycle evehicle custom1 custom2" speed="16.66" length="7.77" shape="4861.55,1879.31 4859.19,1871.90"/>
    </edge>
    <edge id=":218144663_0" function="internal">
        <lane id=":218144663_0_0" index="0" allow="private emergency authority army vip passenger hov taxi bus coach delivery truck trailer motorcycle evehicle custom1 custom2" speed="22.22" length="40.65" shape="5342.70,1807.10 5331.48,1808.16 5320.64,1809.53 5310.76,1811.02 5302.42,1812.46"/>
    </edge>
    <edge id=":218144663_1" function="internal">
        <lane id=":218144663_1_0" index="0" allow="private emergency authority army vip passenger hov taxi bus coach delivery truck trailer motorcycle evehicle custom1 custom2" speed="22.22" length="40.83" shape="5342.45,1803.90 5331.21,1804.98 5320.31,1806.35 5310.37,1807.84 5302.00,1809.28"/>
    </edge>
    <edge id=":218144663_2" function="internal">
        <lane id=":218144663_2_0" index="0" allow="private emergency authority army vip passenger hov taxi bus coach delivery truck trailer motorcycle evehicle custom1 custom2" speed="22.22" length="40.82" shape="5342.21,1800.71 5301.67,1805.52"/>
    </edge>
    <edge id=":218303591_0" function="internal">
        <lane id=":218303591_0_0" index="0" disallow="tram rail_urban rail rail_electric rail_fast ship" speed="27.78" length="8.36" shape="7769.17,2156.79 7766.69,2157.28 7765.13,2158.36 7763.56,2159.40 7761.09,2159.77"/>
        <lane id=":218303591_0_1" index="1" disallow="tram rail_urban rail rail_electric rail_fast ship" speed="27.78" length="8.36" shape="7769.17,2156.79 7761.25,2156.58"/>
    </edge>
    <edge id=":218303591_2" function="internal">
        <lane id=":218303591_2_0" index="0" disallow="tram rail_urban rail rail_electric rail_fast ship" speed="27.78" length="7.76" shape="7761.42,2153.38 7769.17,2153.59"/>
    </edge>
    <edge id=":218303593_0" function="internal">
        <lane id=":218303593_0_0" index="0" disallow="tram rail_urban rail rail_electric rail_fast ship" speed="23.56" length="5.55" shape="7904.54,2154.95 7902.96,2154.45 7901.87,2154.11 7900.76,2153.94 7899.13,2153.93"/>
    </edge>
    <edge id=":218303593_1" function="internal">
        <lane id=":218303593_1_0" index="0" disallow="tram rail_urban rail rail_electric rail_fast ship" speed="27.78" length="13.48" shape="7899.02,2150.73 7902.56,2150.77 7905.81,2150.89 7909.02,2150.76 7912.42,2150.03"/>
    </edge>
    <edge id=":218303593_2" function="internal">
        <lane id=":218303593_2_0" index="0" disallow="tram rail_urban rail rail_electric rail_fast ship" speed="3.65" length="2.34" shape="7899.02,2150.73 7900.25,2151.49 7900.67,2152.28"/>
    </edge>
    <edge id=":218303593_3" function="internal">
        <lane id=":218303593_3_0" index="0" disallow="tram rail_urban rail rail_electric rail_fast ship" speed="3.65" length="2.34" shape="7900.67,2152.28 7900.30,2153.09 7899.13,2153.93"/>
    </edge>
    <edge id=":218378462_0" function="internal">
        <lane id=":218378462_0_0" index="0" allow="private emergency authority army vip passenger hov taxi bus coach delivery truck trailer motorcycle evehicle custom1 custom2" speed="25.00" length="0.28" shape="3279.35,2070.97 3279.09,2071.07"/>
    </edge>
    <edge id=":221372906_0" function="internal">
        <lane id=":221372906_0_0" index="0" allow="private emergency authority army vip passenger hov taxi bus coach delivery truck trailer motorcycle evehicle custom1 custom2" speed="30.83" length="8.16" shape="5121.84,2663.86 5121.01,2661.58 5120.40,2660.04 5119.71,2658.53 5118.65,2656.35"/>
    </edge>
    <edge id=":221372906_1" function="internal">
        <lane id=":221372906_1_0" index="0" allow="private emergency authority army vip passenger hov taxi bus coach delivery truck trailer motorcycle evehicle custom1 custom2" speed="22.22" length="8.06" shape="5124.85,2662.76 5122.13,2655.16"/>
        <lane id=":221372906_1_1" index="1" allow="private emergency authority army vip passenger hov taxi bus coach delivery truck trailer motorcycle evehicle custom1 custom2" speed="22.22" length="8.06" shape="5127.86,2661.67 5125.15,2654.09"/>
    </edge>
    <edge id=":221411261_0" function="internal">
        <lane id=":221411261_0_0" index="0" allow="private emergency authority army vip passenger hov taxi bus coach delivery truck trailer motorcycle evehicle custom1 custom2" speed="39.44" length="8.13" shape="4762.10,1387.79 4764.87,1395.43"/>
    </edge>
    <edge id=":221411261_1" function="internal">
        <lane id=":221411261_1_0" index="0" allow="private emergency authority army vip passenger hov taxi bus coach delivery truck trailer motorcycle evehicle custom1 custom2" speed="39.44" length="8.06" shape="4759.09,1388.89 4761.70,1396.52"/>
    </edge>
    <edge id=":221411275_0" function="internal">
        <lane id=":221411275_0_0" index="0" allow="private emergency authority army vip passenger hov taxi bus coach delivery truck trailer motorcycle evehicle custom1 custom2" speed="22.22" length="8.11" shape="5183.83,1749.61 5186.19,1749.90 5187.84,1749.70 5189.51,1749.47 5191.89,1749.64"/>
    </edge>
    <edge id=":221450744_0" function="internal">
        <lane id=":221450744_0_0" index="0" allow="private emergency authority army vip passenger hov taxi bus coach delivery truck trailer motorcycle evehicle custom1 custom2" speed="16.66" length="8.01" shape="4883.88,1753.03 4886.54,1760.59"/>
    </edge>
    <edge id=":221450744_1" function="internal">
        <lane id=":221450744_1_0" index="0" allow="private emergency authority army vip passenger hov taxi bus coach delivery truck trailer motorcycle evehicle custom1 custom2" speed="22.22" length="8.11" shape="4889.60,1750.96 4890.59,1753.17 4891.23,1754.69 4891.81,1756.24 4892.60,1758.53"/>
        <lane id=":221450744_1_1" index="1" allow="private emergency authority army vip passenger hov taxi bus coach delivery truck trailer motorcycle evehicle custom1 custom2" speed="22.22" length="8.11" shape="4886.59,1752.05 4887.57,1754.24 4888.21,1755.75 4888.79,1757.29 4889.57,1759.56"/>
    </edge>
    <edge id=":221453123_0" function="internal">
        <lane id=":221453123_0_0" index="0" allow="private emergency authority army vip passenger hov taxi bus coach delivery truck trailer motorcycle evehicle custom1 custom2" speed="22.22" length="8.07" shape="4797.16,1496.45 4798.21,1498.55 4799.29,1499.80 4800.40,1501.04 4801.56,1503.10"/>
        <lane id=":221453123_0_1" index="1" allow="private emergency authority army vip passenger hov taxi bus coach delivery truck trailer motorcycle evehicle custom1 custom2" speed="22.22" length="8.07" shape="4797.16,1496.45 4797.76,1498.76 4797.82,1500.44 4797.92,1502.11 4798.63,1504.37"/>
    </edge>
    <edge id=":221640287_0" function="internal">
        <lane id=":221640287_0_0" index="0" allow="private emergency authority army vip passenger hov taxi bus coach delivery truck trailer motorcycle evehicle custom1 custom2" speed="25.00" length="0.29" shape="3982.89,1864.25 3983.19,1864.23"/>
    </edge>
    <edge id=":221642774_0" function="internal">
        <lane id=":221642774_0_0" index="0" allow="private emergency authority army vip passenger hov taxi bus coach delivery truck trailer motorcycle evehicle custom1 custom2" speed="16.67" length="13.61" shape="3973.54,1829.41 3986.77,1832.60"/>
    </edge>
    <edge id=":221642774_1" function="internal">
        <lane id=":221642774_1_0" index="0" allow="private emergency authority army vip passenger hov taxi bus coach delivery truck trailer motorcycle evehicle custom1 custom2" speed="16.67" length="13.42" shape="3973.00,1832.56 3977.11,1833.42 3980.10,1834.33 3982.72,1835.36 3985.76,1836.59"/>
    </edge>
    <edge id=":221642779_0" function="internal">
        <lane id=":221642779_0_0" index="0" allow="private emergency authority army vip passenger hov taxi bus coach delivery truck trailer motorcycle evehicle custom1 custom2" speed="28.05" length="0.10" shape="4099.01,1860.79 4099.01,1860.79"/>
    </edge>
    <edge id=":2423117136_0" function="internal">
        <lane id=":2423117136_0_0" index="0" allow="private emergency authority army vip passenger hov taxi bus coach delivery truck trailer motorcycle evehicle custom1 custom2" speed="27.78" length="8.17" shape="4437.19,1874.03 4434.85,1874.51 4433.33,1875.22 4431.81,1875.95 4429.48,1876.49"/>
        <lane id=":2423117136_0_1" index="1" allow="private emergency authority army vip passenger hov taxi bus coach delivery truck trailer motorcycle evehicle custom1 custom2" speed="27.78" length="8.17" shape="4437.19,1874.03 4434.78,1874.01 4433.13,1873.63 4431.48,1873.27 4429.08,1873.32"/>
    </edge>
    <edge id=":2445453526_0" function="internal">
        <lane id=":2445453526_0_0" index="0" allow="private emergency authority army vip passenger hov taxi bus coach delivery truck trailer motorcycle evehicle custom1 custom2" speed="22.22" length="15.79" shape="4669.70,1259.61 4668.69,1255.08 4668.11,1251.95 4667.38,1248.86 4665.94,1244.46"/>
        <lane id=":2445453526_0_1" index="1" allow="private emergency authority army vip passenger hov taxi bus coach delivery truck trailer motorcycle evehicle custom1 custom2" speed="22.22" length="15.79" shape="4672.80,1258.85 4671.77,1254.22 4671.17,1251.03 4670.42,1247.87 4668.96,1243.38"/>
    </edge>
    <edge id=":256289218_0" function="internal">
        <lane id=":256289218_0_0" index="0" allow="private emergency authority army vip passenger hov taxi bus coach delivery truck trailer motorcycle evehicle custom1 custom2" speed="22.23" length="0.24" shape="794.90,1332.28 795.07,1332.35"/>
        <lane id=":256289218_0_1" index="1" allow="private emergency authority army vip passenger hov taxi bus coach delivery truck trailer motorcycle evehicle custom1 custom2" speed="22.23" length="0.24" shape="793.64,1335.22 793.92,1335.34"/>
    </edge>
    <edge id=":256289309_0" function="internal">
        <lane id=":256289309_0_0" index="0" allow="private emergency authority army vip passenger hov taxi bus coach delivery truck trailer motorcycle evehicle custom1 custom2" speed="27.78" length="8.21" shape="856.28,1356.62 858.58,1357.37 860.27,1357.53 861.96,1357.69 864.25,1358.46"/>
        <lane id=":256289309_0_1" index="1" allow="private emergency authority army vip passenger hov taxi bus coach delivery truck trailer motorcycle evehicle custom1 custom2" speed="27.78" length="8.21" shape="856.28,1356.62 858.37,1357.83 859.60,1358.98 860.84,1360.15 862.92,1361.37"/>