<?xml version="1.0" encoding="UTF-8"?>

<!-- generated on Wed Apr  1 04:16:58 2020 by Eclipse SUMO polyconvert Version 1.5.0
<configuration xmlns:xsi="http://www.w3.org/2001/XMLSchema-instance" xsi:noNamespaceSchemaLocation="http://sumo.dlr.de/xsd/polyconvertConfiguration.xsd">

    <input>
        <net-file value="osm.net.xml"/>
        <osm-files value="osm_bbox.osm.xml"/>
        <osm.keep-full-type value="true"/>
        <type-file value="/usr/share/sumo/data/typemap/osmPolyconvert.typ.xml"/>
    </input>

    <output>
        <output-file value="osm.poly.xml"/>
    </output>

    <processing>
        <poi-layer-offset value="5"/>
    </processing>

    <report>
        <verbose value="true"/>
    </report>

</configuration>
-->

<additional xmlns:xsi="http://www.w3.org/2001/XMLSchema-instance" xsi:noNamespaceSchemaLocation="http://sumo.dlr.de/xsd/additional_file.xsd">
    <location netOffset="-475069.99,-5524502.82" convBoundary="-593.31,-563.61,1178.59,1280.71" origBoundary="8.644807,49.867375,8.669441,49.883927" projParameter="+proj=utm +zone=32 +ellps=WGS84 +datum=WGS84 +units=m +no_defs"/>

    <poly id="101507894" type="building.yes" color="255,230,230" fill="1" layer="-1.00" shape="667.923664,293.245024 670.023263,285.597215 673.883146,271.537273 676.230240,262.998879 685.489260,265.525530 677.182637,295.771660 667.923664,293.245024"/>
    <poly id="101507895" type="building.yes" color="255,230,230" fill="1" layer="-1.00" shape="646.504773,349.167127 653.625022,353.860341 649.178804,360.562557 644.754052,367.242442 636.927560,362.085453 645.805705,348.703307 646.504773,349.167127"/>
    <poly id="101507897" type="building.yes" color="255,230,230" fill="1" layer="-1.00" shape="596.930973,200.793396 587.106976,202.071948 588.438244,212.039142 598.219513,210.849734 596.930973,200.793396"/>
    <poly id="101507900" type="building.yes" color="255,230,230" fill="1" layer="-1.00" shape="590.394451,309.383100 581.692544,307.699093 583.293468,299.441992 584.269541,294.423175 588.476625,295.226915 592.971419,296.096068 590.394451,309.383100"/>
    <poly id="101507902" type="building.yes" color="255,230,230" fill="1" layer="-1.00" shape="604.697797,319.914303 622.889817,333.952521 616.567630,342.108627 598.368386,328.059344 604.697797,319.914303"/>
    <poly id="101507904" type="building.yes" color="255,230,230" fill="1" layer="-1.00" shape="724.168277,249.518881 716.338187,248.375539 713.770335,247.786694 710.030847,267.872242 705.190745,287.673667 715.247321,290.207898 720.065552,270.328752 724.168277,249.518881"/>
    <poly id="101507905" type="building.yes" color="255,230,230" fill="1" layer="-1.00" shape="612.853236,289.702094 614.808008,278.641566 607.163899,277.308529 604.884801,288.148158 612.853236,289.702094"/>
    <poly id="101507906" type="building.yes" color="255,230,230" fill="1" layer="-1.00" shape="655.782944,328.878661 658.499737,321.072406 663.592815,306.428739 666.238630,298.811822 675.155208,301.895918 664.699478,331.962740 655.782944,328.878661"/>
    <poly id="101507911" type="building.yes" color="255,230,230" fill="1" layer="-1.00" shape="589.695241,221.472989 584.395680,222.208528 569.809912,223.964500 555.024423,226.043849 555.450043,229.588695 556.493899,245.894678 588.153289,239.602968 592.008283,238.807252 591.569523,235.529305 571.979548,238.175131 571.487050,232.551443 590.781091,229.606756 589.695241,221.472989"/>
    <poly id="101507913" type="building.yes" color="255,230,230" fill="1" layer="-1.00" shape="571.648130,291.978620 575.166209,273.895286 585.809903,275.948529 591.987573,277.143625 588.476625,295.226915 584.269541,294.423175 571.648130,291.978620"/>
    <poly id="101507915" type="building.hospital" color="255,230,230" fill="1" layer="-1.00" shape="802.484608,163.422204 806.518833,135.252326 789.607489,132.837599 784.437628,168.928888 792.469059,170.082546 790.134777,186.337002 789.619260,189.952796 804.186399,192.022236 806.485690,175.968074 819.665183,177.843643 817.310163,194.298311 832.229661,196.432959 834.584874,180.011652 839.286457,180.513179 840.881919,169.332043 828.809663,167.607124 831.116174,151.541823 814.557228,149.181033 812.313541,164.823561 802.484608,163.422204"/>
    <poly id="101507916" type="building.yes" color="255,230,230" fill="1" layer="-1.00" shape="645.134118,290.612641 645.561486,288.186900 632.862205,285.998276 634.311973,277.664044 651.929950,280.708844 650.067156,291.468747 645.134118,290.612641"/>
    <poly id="101507917" type="building.yes" color="255,230,230" fill="1" layer="-1.00" shape="602.807562,351.610316 579.947748,381.055148 588.362344,387.554724 611.229361,358.109895 602.807562,351.610316"/>
    <poly id="101507918" type="building.yes" color="255,230,230" fill="1" layer="-1.00" shape="700.760164,337.793157 714.202005,299.029498 704.508290,295.693110 691.066460,334.445676 700.760164,337.793157"/>
    <poly id="105704881" type="building.yes" color="255,230,230" fill="1" layer="-1.00" shape="532.332610,406.787474 542.057004,393.123357 533.861088,387.323323 531.733477,390.323818 527.699440,395.979137 524.136703,400.987454 532.332610,406.787474"/>
    <poly id="105704914" type="building.yes" color="255,230,230" fill="1" layer="-1.00" shape="464.763062,394.230097 473.472513,383.361191 483.452968,391.298884 479.016110,396.844885 483.580839,400.470995 479.315523,405.816085 464.763062,394.230097"/>
    <poly id="105704935" type="building.yes" color="255,230,230" fill="1" layer="-1.00" shape="525.828270,415.922934 532.332610,406.787474 524.136703,400.987454 519.696367,397.849955 517.582938,400.805918 522.008902,403.943480 517.610765,410.111904 525.828270,415.922934"/>
    <poly id="105704945" type="building.yes" color="255,230,230" fill="1" layer="-1.00" shape="489.027354,386.248052 495.214292,378.425960 504.530867,385.744074 517.747763,369.017625 525.312088,374.965038 520.153913,381.492694 515.767306,387.038436 512.073730,391.713802 510.595487,390.553073 504.429996,398.352813 489.027354,386.248052"/>
    <poly id="105704953" type="building.yes" color="255,230,230" fill="1" layer="-1.00" shape="477.187415,378.641227 484.203075,369.770228 495.214292,378.425960 489.027354,386.248052 488.198625,387.296945 477.187415,378.641227"/>
    <poly id="105704956" type="building.yes" color="255,230,230" fill="1" layer="-1.00" shape="458.541878,402.408169 463.050056,396.750643 471.710730,403.615827 470.681936,404.910237 467.195364,409.273378 458.541878,402.408169"/>
    <poly id="106996480" type="building.yes" color="255,230,230" fill="1" layer="-1.00" shape="865.998774,401.583305 865.711473,390.354997 882.681062,389.912266 882.975562,401.151661 865.998774,401.583305"/>
    <poly id="106996482" type="building.yes" color="255,230,230" fill="1" layer="-1.00" shape="847.719774,406.457072 847.372839,393.149889 829.045377,393.621046 829.331610,404.593635 834.375095,404.470994 834.435841,406.805588 847.719774,406.457072"/>
    <poly id="106996483" type="building.yes" color="255,230,230" fill="1" layer="-1.00" shape="893.653481,398.079771 898.879223,382.446198 910.766897,386.395776 909.859306,389.112717 913.262972,390.242728 908.944784,403.159346 893.653481,398.079771"/>
    <poly id="106996484" type="building.yes" color="255,230,230" fill="1" layer="-1.00" shape="869.471536,363.509473 875.594695,352.541599 875.790912,351.428881 876.963964,350.233971 877.997684,350.018103 879.328826,350.434656 879.935111,351.043460 880.344185,352.542617 889.642765,357.548846 882.957122,369.675531 877.187571,366.510320 876.660093,367.457742 869.471536,363.509473"/>
    <poly id="106996486" type="building.yes" color="255,230,230" fill="1" layer="-1.00" shape="800.722314,348.996315 804.179325,349.192072 804.446055,344.576738 816.003046,345.247659 815.742694,349.685070 817.417285,349.777635 817.043200,356.094567 815.569845,356.012218 815.282446,360.827777 800.074386,359.939733 800.722314,348.996315"/>
    <poly id="106996494" type="building.yes" color="255,230,230" fill="1" layer="-1.00" shape="829.721127,345.542023 842.259148,345.463676 842.395627,366.332317 829.857655,366.410664 829.721127,345.542023"/>
    <poly id="106996497" type="building.yes" color="255,230,230" fill="1" layer="-1.00" shape="782.595054,400.544705 794.133222,400.248361 793.768993,386.318627 782.230845,386.626090 782.595054,400.544705"/>
    <poly id="106996498" type="building.yes" color="255,230,230" fill="1" layer="-1.00" shape="849.700146,401.022431 849.179377,380.978269 860.214680,380.695435 860.735408,400.739598 849.700146,401.022431"/>
    <poly id="106996503" type="building.yes" color="255,230,230" fill="1" layer="-1.00" shape="802.151829,385.791842 822.584306,385.255575 822.958384,399.796779 802.525962,400.333045 802.151829,385.791842"/>
    <poly id="106996505" type="building.yes" color="255,230,230" fill="1" layer="-1.00" shape="754.518591,399.714524 754.223323,388.363953 770.330798,387.946976 770.626032,399.297548 754.518591,399.714524"/>
    <poly id="107211730" type="building.yes" color="255,230,230" fill="1" layer="-1.00" shape="841.201815,266.527715 852.159681,268.157578 854.217836,254.394906 843.259943,252.765038 841.201815,266.527715"/>
    <poly id="107211732" type="building.yes" color="255,230,230" fill="1" layer="-1.00" shape="882.169015,275.272658 885.164990,260.716402 906.129634,265.003467 903.133605,279.559711 882.169015,275.272658"/>
    <poly id="107211733" type="building.yes" color="255,230,230" fill="1" layer="-1.00" shape="812.792580,291.015327 818.187324,277.849207 841.028237,287.153136 836.671195,297.790711 819.826683,290.928231 818.788940,293.456756 812.792580,291.015327"/>
    <poly id="107211734" type="building.yes" color="255,230,230" fill="1" layer="-1.00" shape="806.175412,320.008425 806.937650,312.122058 818.539763,313.226401 818.361263,315.083974 817.262370,326.418553 812.704915,325.983112 813.220098,320.688442 806.175412,320.008425"/>
    <poly id="107211736" type="building.yes" color="255,230,230" fill="1" layer="-1.00" shape="863.967862,260.688807 865.647158,250.574670 878.842158,252.750509 877.170023,262.864610 863.967862,260.688807"/>
    <poly id="107211737" type="building.yes" color="255,230,230" fill="1" layer="-1.00" shape="818.361263,315.083974 829.306328,315.479705 828.991544,327.022021 817.262370,326.418553 818.361263,315.083974"/>
    <poly id="107211738" type="building.yes" color="255,230,230" fill="1" layer="-1.00" shape="789.228539,240.632244 791.653437,228.569019 806.281740,231.483189 804.615984,239.784984 798.646745,238.599829 797.887575,242.361253 789.228539,240.632244"/>
    <poly id="107211740" type="building.yes" color="255,230,230" fill="1" layer="-1.00" shape="770.785664,284.354719 771.489480,271.465326 774.270878,271.608505 774.921112,259.586589 789.525448,260.377204 789.386073,262.946181 802.207949,263.633640 801.464485,277.312612 788.958842,276.634856 789.198019,272.286487 784.317976,272.030410 783.607543,285.053251 770.785664,284.354719"/>
    <poly id="107211741" type="building.yes" color="255,230,230" fill="1" layer="-1.00" shape="829.306328,315.479705 841.292949,315.804087 840.978139,327.346402 828.991544,327.022021 829.306328,315.479705"/>
    <poly id="107211742" type="building.yes" color="255,230,230" fill="1" layer="-1.00" shape="832.232699,258.117862 833.769345,246.647908 819.325213,244.733495 817.795782,256.203422 832.232699,258.117862"/>
    <poly id="150032884" type="amenity.university" color="237,199,199" fill="1" layer="-1.00" shape="277.068148,100.414941 288.473450,96.071025 335.923729,98.389073 371.686896,100.004781 414.230456,96.264130 452.438221,93.466354 460.869228,89.214155 586.219170,75.637421 596.111433,148.240382 600.630192,181.419529 589.126181,179.837119 558.539798,175.617065 552.484099,222.019367 544.377472,286.754112 525.774923,272.584597 529.749929,236.442862 454.229386,225.089077 455.155923,218.680660 431.531692,215.886197 433.436385,201.790502 434.399643,192.402180 421.742350,190.035967 310.911826,170.973193 271.053338,137.978247 277.068148,100.414941"/>
    <poly id="150032888" type="amenity.conference_centre" color="237,199,199" fill="1" layer="-1.00" shape="413.745952,220.258861 374.819915,207.160865 330.844093,208.617985 330.686209,202.370158 269.929167,176.497581 262.945759,209.640209 258.262209,231.898498 274.917483,231.755493 275.253774,229.874941 284.227534,229.678198 272.963701,241.315159 303.721419,251.603461 325.031434,251.161361 325.125715,254.496454 365.089736,274.660666 373.167082,263.838957 379.393973,267.935491 415.413535,234.582902 403.619419,229.244185 413.745952,220.258861"/>
    <poly id="150032888#1" type="building.civic" color="255,230,230" fill="1" layer="-1.00" shape="413.745952,220.258861 374.819915,207.160865 330.844093,208.617985 330.686209,202.370158 269.929167,176.497581 262.945759,209.640209 258.262209,231.898498 274.917483,231.755493 275.253774,229.874941 284.227534,229.678198 272.963701,241.315159 303.721419,251.603461 325.031434,251.161361 325.125715,254.496454 365.089736,274.660666 373.167082,263.838957 379.393973,267.935491 415.413535,234.582902 403.619419,229.244185 413.745952,220.258861"/>
    <poly id="150041564" type="amenity.hospital" color="237,199,199" fill="1" layer="-1.00" shape="764.383423,204.297563 904.253522,226.197486 930.767138,232.472320 979.253649,246.788166 1008.042328,129.583398 1010.536933,118.531743 997.976472,115.296510 842.771829,79.409054 818.459448,115.585975 763.037772,114.211160 762.455414,142.954851 758.726869,143.127246 736.405955,144.172562 736.554309,181.985596 763.792717,181.551955 764.383423,204.297563"/>
    <poly id="150041564#1" type="landuse.commercial" color="209,209,204" fill="1" layer="-3.00" shape="764.383423,204.297563 904.253522,226.197486 930.767138,232.472320 979.253649,246.788166 1008.042328,129.583398 1010.536933,118.531743 997.976472,115.296510 842.771829,79.409054 818.459448,115.585975 763.037772,114.211160 762.455414,142.954851 758.726869,143.127246 736.405955,144.172562 736.554309,181.985596 763.792717,181.551955 764.383423,204.297563"/>
    <poly id="150041598" type="amenity.parking" color="184,184,179" fill="1" layer="-1.00" shape="659.298442,23.240016 657.351724,-30.820011 573.633647,-23.604151 576.961088,30.505199 659.298442,23.240016"/>
    <poly id="150041604" type="leisure.park" color="207,245,201" fill="1" layer="-2.00" shape="882.049411,-50.751747 877.056579,-56.889040 876.224034,-66.313724 857.297575,-67.674535 848.018322,-61.762527 842.605977,-44.404731 842.798011,-31.997454 835.798154,-16.133533 763.059100,-13.917424 763.794830,33.132356 1002.123980,96.210019 1009.675596,96.098636 1019.593619,90.039528 1023.243661,75.413742 1048.244349,-76.485583 1016.631651,-76.945675 973.647852,-78.088817 960.518675,-78.219402 955.559505,-73.583188 946.177554,-68.115629 934.641496,-65.507001 913.919815,-50.482608 899.215407,-49.360756 882.049411,-50.751747"/>
    <poly id="161534327" type="building.yes" color="255,230,230" fill="1" layer="-1.00" shape="742.997799,144.765577 738.334550,144.808764 738.417185,155.204102 737.813609,155.206814 738.030061,182.590477 750.877333,182.488294 750.578336,144.709292 749.795123,144.712809 742.997799,144.765577"/>
    <poly id="161534331" type="amenity.school" color="237,199,199" fill="1" layer="-1.00" shape="725.133671,127.011932 725.220679,138.374552 742.946925,138.239301 742.978477,142.063891 742.997799,144.765577 749.795123,144.712809 749.775904,142.033360 749.650065,126.812828 725.133671,127.011932"/>
    <poly id="161534331#1" type="building.yes" color="255,230,230" fill="1" layer="-1.00" shape="725.133671,127.011932 725.220679,138.374552 742.946925,138.239301 742.978477,142.063891 742.997799,144.765577 749.795123,144.712809 749.775904,142.033360 749.650065,126.812828 725.133671,127.011932"/>
    <poly id="173920550" type="amenity.restaurant" color="237,199,199" fill="1" layer="-1.00" shape="499.902102,331.585047 508.445357,320.472348 512.685031,323.710813 517.415008,327.325085 508.871745,338.437769 499.902102,331.585047"/>
    <poly id="173920550#1" type="building.yes" color="255,230,230" fill="1" layer="-1.00" shape="499.902102,331.585047 508.445357,320.472348 512.685031,323.710813 517.415008,327.325085 508.871745,338.437769 499.902102,331.585047"/>
    <poly id="173920551" type="amenity.fraternity" color="237,199,199" fill="1" layer="-1.00" shape="425.045165,284.205007 436.674031,289.577877 439.769067,282.848276 447.611318,269.281501 452.801643,263.498564 459.143050,256.442901 466.664036,248.058795 462.921374,245.107186 451.705762,257.944340 450.054417,256.650994 440.484489,269.525163 434.130942,266.007293 425.045165,284.205007"/>
    <poly id="173920551#1" type="building.yes" color="255,230,230" fill="1" layer="-1.00" shape="425.045165,284.205007 436.674031,289.577877 439.769067,282.848276 447.611318,269.281501 452.801643,263.498564 459.143050,256.442901 466.664036,248.058795 462.921374,245.107186 451.705762,257.944340 450.054417,256.650994 440.484489,269.525163 434.130942,266.007293 425.045165,284.205007"/>
    <poly id="173920552" type="building.yes" color="255,230,230" fill="1" layer="-1.00" shape="505.693480,306.242145 503.119377,304.274745 497.261953,311.895200 494.507562,309.784083 490.535948,314.949935 488.336787,313.269920 486.901039,315.144331 484.016858,312.933744 480.873843,317.017355 494.941283,327.771707 511.534915,306.182293 507.879247,303.385916 505.693480,306.242145"/>
    <poly id="173920553" type="amenity.fraternity" color="237,199,199" fill="1" layer="-1.00" shape="457.973571,299.509830 466.763084,306.229881 470.463259,301.421033 475.334902,295.083645 471.664787,292.276239 470.421828,293.882937 465.302424,289.970279 457.973571,299.509830"/>
    <poly id="173920553#1" type="building.yes" color="255,230,230" fill="1" layer="-1.00" shape="457.973571,299.509830 466.763084,306.229881 470.463259,301.421033 475.334902,295.083645 471.664787,292.276239 470.421828,293.882937 465.302424,289.970279 457.973571,299.509830"/>
    <poly id="173920554" type="building.yes" color="255,230,230" fill="1" layer="-1.00" shape="466.763084,306.229881 480.873843,317.017355 484.016858,312.933744 489.552795,305.726115 485.803404,302.863468 478.117089,296.983375 473.138323,303.465787 470.463259,301.421033 466.763084,306.229881"/>
    <poly id="173920555" type="building.yes" color="255,230,230" fill="1" layer="-1.00" shape="511.534915,306.182293 507.879247,303.385916 500.640056,297.859552 494.346853,306.037907 491.181487,303.617342 502.003443,289.536793 516.070912,300.291200 511.534915,306.182293"/>
    <poly id="173920556" type="building.yes" color="255,230,230" fill="1" layer="-1.00" shape="520.749739,313.222936 511.534915,306.182293 516.070912,300.291200 530.008537,310.946167 517.415008,327.325085 512.685031,323.710813 520.749739,313.222936"/>
    <poly id="173920557" type="building.yes" color="255,230,230" fill="1" layer="-1.00" shape="489.552795,305.726115 491.181487,303.617342 502.003443,289.536793 487.892656,278.749264 483.249549,284.785406 493.610887,292.699152 485.803404,302.863468 489.552795,305.726115"/>
    <poly id="173920558" type="building.yes" color="255,230,230" fill="1" layer="-1.00" shape="475.334902,295.083645 483.249549,284.785406 487.892656,278.749264 472.656970,267.099646 467.134022,274.007035 477.991035,281.885143 470.619290,291.480463 471.664787,292.276239 475.334902,295.083645"/>
    <poly id="176232219" type="building.yes" color="255,230,230" fill="1" layer="-1.00" shape="616.573532,413.422096 608.816118,407.642204 633.178037,375.088678 640.942656,380.868572 634.057541,390.061210 623.644244,403.972873 616.573532,413.422096"/>
    <poly id="222689258" type="building.yes" color="255,230,230" fill="1" layer="-1.00" shape="771.736710,99.162275 772.126458,110.757023 788.442546,110.205750 788.052833,98.611001 771.736710,99.162275"/>
    <poly id="222689260" type="building.yes" color="255,230,230" fill="1" layer="-1.00" shape="797.814328,99.367767 798.362499,111.050753 817.077145,110.177502 816.528965,98.483396 797.814328,99.367767"/>
    <poly id="222689266" type="building.yes" color="255,230,230" fill="1" layer="-1.00" shape="737.175880,93.235686 746.941732,93.358591 747.119281,80.093537 737.353355,79.959513 737.175880,93.235686"/>
    <poly id="222691380" type="building.yes" color="255,230,230" fill="1" layer="-1.00" shape="708.192965,76.554962 720.764041,75.697899 720.049244,65.349878 707.478145,66.206942 708.192965,76.554962"/>
    <poly id="222691384" type="building.yes" color="255,230,230" fill="1" layer="-1.00" shape="729.725333,104.643297 753.151931,104.960554 753.619564,69.879887 730.192814,69.562627 729.725333,104.643297"/>
    <poly id="222729047" type="building.yes" color="255,230,230" fill="1" layer="-1.00" shape="467.134022,274.007035 472.656970,267.099646 459.143050,256.442901 452.801643,263.498564 461.853236,269.372416 467.134022,274.007035"/>
    <poly id="22598446" type="building.yes" color="255,230,230" fill="1" layer="-1.00" shape="506.863938,233.211105 521.014175,235.248316 526.336804,198.388893 528.922307,180.665547 462.059890,170.962414 459.446921,188.919405 457.942331,199.366432 455.155923,218.680660 454.229386,225.089077 459.320036,225.821990 466.999728,227.054590 467.953973,218.833748 483.196586,220.899251 482.545650,226.294637 500.269443,228.849251 500.949694,223.576037 507.916266,224.422787 506.863938,233.211105"/>
    <poly id="23509751" type="building.yes" color="255,230,230" fill="1" layer="-1.00" shape="684.012085,387.456667 686.676865,377.671584 690.496923,378.710632 696.469966,356.824948 679.319224,352.165730 681.383239,344.595915 736.698566,359.601520 725.989307,398.853170 684.012085,387.456667"/>
    <poly id="23509752" type="amenity.parking" color="184,184,179" fill="1" layer="-1.00" shape="718.286742,389.270379 724.556763,366.293786 712.003087,362.881297 705.725930,385.857937 714.725712,388.307974 718.286742,389.270379"/>
    <poly id="23509752#1" type="building.yes" color="255,230,230" fill="1" layer="-1.00" shape="718.286742,389.270379 724.556763,366.293786 712.003087,362.881297 705.725930,385.857937 714.725712,388.307974 718.286742,389.270379"/>
    <poly id="23509820" type="amenity.parking" color="184,184,179" fill="1" layer="-1.00" shape="742.911801,354.347951 747.395984,340.074006 749.786119,299.503315 722.459023,297.658157 712.532072,346.301368 742.911801,354.347951"/>
    <poly id="240850661" type="building.yes" color="255,230,230" fill="1" layer="-1.00" shape="432.875333,369.058466 447.372581,351.091874 440.622487,345.674551 426.125247,363.641161 432.875333,369.058466"/>
    <poly id="240852090" type="landuse.construction" color="194,194,130" fill="1" layer="-3.00" shape="407.339925,400.851082 426.909645,376.534952 409.488093,364.517434 390.675215,387.773928 407.339925,400.851082"/>
    <poly id="24484967" type="building.university" color="255,230,230" fill="1" layer="-1.00" shape="354.013629,380.958791 356.445251,370.596446 359.824643,358.506423 366.076354,360.190131 367.442494,355.669822 374.980898,330.685711 363.316657,327.003134 366.213318,319.340448 354.318511,315.525522 353.147010,318.610671 351.485771,323.021147 334.188167,317.763302 328.432408,339.715115 318.677921,337.269172 316.634036,344.416539 293.583997,338.240060 289.304222,354.525890 288.174291,358.833889 287.067392,363.464217 341.762485,377.757032 354.013629,380.958791"/>
    <poly id="24488975" type="building.yes" color="255,230,230" fill="1" layer="-1.00" shape="323.181074,137.150486 317.772065,165.827359 316.200551,174.151116 330.289144,176.799621 338.364081,133.967963 343.113790,108.796424 329.025077,106.159003 324.857902,128.281448 323.181074,137.150486"/>
    <poly id="247221612" type="building.yes" color="255,230,230" fill="1" layer="-1.00" shape="770.608410,313.708113 784.745561,314.500811 786.090476,290.745860 771.953263,289.953158 770.608410,313.708113"/>
    <poly id="247724357" type="building.yes" color="255,230,230" fill="1" layer="-1.00" shape="583.438238,39.070436 590.413677,38.649756 590.095546,33.447780 583.120101,33.868460 583.438238,39.070436"/>
    <poly id="247764513" type="building.yes" color="255,230,230" fill="1" layer="-1.00" shape="559.765494,270.195833 562.464506,256.897116 574.295371,259.289634 571.596331,272.588345 559.765494,270.195833"/>
    <poly id="256102715" type="building.yes" color="255,230,230" fill="1" layer="-1.00" shape="249.440202,41.035767 244.010041,36.824545 241.871339,38.969086 230.271534,29.126898 225.356705,21.344321 235.089000,14.117182 236.160324,15.824504 239.613097,21.312284 237.492123,22.622865 247.613379,31.271057 253.277151,36.281738 249.440202,41.035767"/>
    <poly id="256102717" type="building.yes" color="255,230,230" fill="1" layer="-1.00" shape="315.332441,29.838096 316.105298,19.705691 338.256921,20.827500 337.651679,31.481701 315.332441,29.838096"/>
    <poly id="256102718" type="building.yes" color="255,230,230" fill="1" layer="-1.00" shape="359.892451,31.680363 359.809695,21.418448 381.610614,21.274537 382.389012,31.244202 359.892451,31.680363"/>
    <poly id="256102719" type="building.yes" color="255,230,230" fill="1" layer="-1.00" shape="319.485289,62.740728 323.632926,63.066443 323.439136,69.404823 318.723084,68.914930 319.485289,62.740728"/>
    <poly id="256102720" type="building.garages" color="255,230,230" fill="1" layer="-1.00" shape="331.810434,36.367129 343.274689,37.026346 343.487569,33.289588 332.023357,32.641488 331.810434,36.367129"/>
    <poly id="256102721" type="building.garages" color="255,230,230" fill="1" layer="-1.00" shape="310.016016,34.776740 320.209700,35.719678 320.599968,31.492898 310.413462,30.549927 310.016016,34.776740"/>
    <poly id="256102722" type="building.yes" color="255,230,230" fill="1" layer="-1.00" shape="176.618506,34.454401 182.142198,35.551970 183.252124,30.021017 177.721241,28.923480 176.618506,34.454401"/>
    <poly id="256102723" type="building.yes" color="255,230,230" fill="1" layer="-1.00" shape="401.954004,67.134214 397.019106,67.501368 396.476561,60.399176 401.418651,60.031989 401.954004,67.134214"/>
    <poly id="256102724" type="building.garages" color="255,230,230" fill="1" layer="-1.00" shape="377.055838,37.250223 387.379189,36.691711 387.159242,32.578902 376.835883,33.137414 377.055838,37.250223"/>
    <poly id="256102725" type="building.garages" color="255,230,230" fill="1" layer="-1.00" shape="353.889723,37.400384 364.496302,37.496522 364.535171,33.415888 353.921449,33.330901 353.889723,37.400384"/>
    <poly id="256102726" type="building.yes" color="255,230,230" fill="1" layer="-1.00" shape="337.651679,31.481701 338.256921,20.827500 359.809695,21.418448 359.892451,31.680363 337.651679,31.481701"/>
    <poly id="256102727" type="building.yes" color="255,230,230" fill="1" layer="-1.00" shape="400.512230,29.838518 401.337130,35.827582 407.153959,35.033917 406.336200,29.033700 404.075068,29.555446 400.512230,29.838518"/>
    <poly id="256102728" type="building.yes" color="255,230,230" fill="1" layer="-1.00" shape="381.610614,21.274537 403.296709,19.585778 404.075068,29.555446 400.512230,29.838518 382.389012,31.244202 381.610614,21.274537"/>
    <poly id="256102729" type="building.yes" color="255,230,230" fill="1" layer="-1.00" shape="297.527116,28.474129 295.678877,35.998630 290.572126,34.932392 291.940908,27.843701 293.206997,28.149223 297.527116,28.474129"/>
    <poly id="256102732" type="building.yes" color="255,230,230" fill="1" layer="-1.00" shape="247.589367,5.654347 251.163679,9.440460 254.044753,12.484819 245.904320,17.414232 239.613097,21.312284 236.160324,15.824504 237.455923,14.728958 247.589367,5.654347"/>
    <poly id="256102733" type="building.yes" color="255,230,230" fill="1" layer="-1.00" shape="213.496641,22.132565 215.387058,12.862250 200.074278,9.752692 198.204830,18.889495 213.496641,22.132565"/>
    <poly id="256102735" type="building.yes" color="255,230,230" fill="1" layer="-1.00" shape="377.854266,68.945170 377.319236,61.920774 377.181379,60.053510 379.774552,59.863791 378.956270,49.027072 386.254474,48.482353 387.738376,68.199648 377.854266,68.945170"/>
    <poly id="256102737" type="building.yes" color="255,230,230" fill="1" layer="-1.00" shape="225.356705,21.344321 222.904067,20.844128 224.991872,10.739030 235.909278,12.790329 237.455923,14.728958 236.160324,15.824504 235.089000,14.117182 225.356705,21.344321"/>
    <poly id="256102740" type="building.yes" color="255,230,230" fill="1" layer="-1.00" shape="195.098712,34.124870 198.204830,18.889495 213.496641,22.132565 210.353839,37.212442 195.098712,34.124870"/>
    <poly id="256102742" type="landuse.brownfield" color="194,194,130" fill="1" layer="-3.00" shape="217.074018,50.067834 219.150227,39.006603 221.519166,27.532648 230.271534,29.126898 241.871339,38.969086 244.010041,36.824545 249.440202,41.035767 253.501275,44.419388 241.982358,55.345999 217.074018,50.067834"/>
    <poly id="25790362" type="building.university" color="255,230,230" fill="1" layer="-1.00" shape="295.272435,328.792799 310.394422,332.815205 317.811837,306.564067 331.647968,310.648003 339.615204,288.330304 322.722819,282.147816 309.537110,277.327112 302.972018,299.838574 299.617119,312.551152 295.272435,328.792799"/>
    <poly id="25979475" type="building.yes" color="255,230,230" fill="1" layer="-1.00" shape="434.896126,333.114556 422.610159,327.010866 407.624249,321.297527 405.272383,327.112052 393.871019,322.772225 395.873231,317.492973 391.173385,315.779919 386.495142,314.077889 384.322166,319.724832 380.853827,318.628804 387.559919,300.186135 395.799726,302.939303 400.225479,304.420123 442.802857,319.525242 434.896126,333.114556"/>
    <poly id="264882473" type="building.yes" color="255,230,230" fill="1" layer="-1.00" shape="704.726603,117.441816 711.198815,116.990200 711.091017,115.389635 709.376624,90.492117 709.153340,87.179837 702.681043,87.620337 704.726603,117.441816"/>