<?xml version="1.0" encoding="UTF-8"?>

<!-- generated on Mi 01 Apr 2020 20:53:36 CEST by Eclipse SUMO netedit Version 1.5.0
<configuration xmlns:xsi="http://www.w3.org/2001/XMLSchema-instance" xsi:noNamespaceSchemaLocation="http://sumo.dlr.de/xsd/netconvertConfiguration.xsd">

    <input>
        <sumo-net-file value="/home/niels/git/sumo/tools/2020-04-01-20-22-20/osm.net.xml"/>
    </input>

    <output>
        <output-file value="/home/niels/git/sumo/tools/2020-04-01-20-22-20/osm.net.xml"/>
        <output.street-names value="true"/>
    </output>

    <processing>
        <geometry.min-radius.fix.railways value="false"/>
        <geometry.max-grade.fix value="false"/>
        <offset.disable-normalization value="true"/>
        <lefthand value="false"/>
    </processing>

    <junctions>
        <no-turnarounds value="true"/>
        <junctions.corner-detail value="5"/>
        <junctions.limit-turn-speed value="5.5"/>
        <rectangular-lane-cut value="false"/>
    </junctions>

    <pedestrian>
        <walkingareas value="false"/>
    </pedestrian>

    <netedit>
        <route-files value="/home/niels/git/sumo/tools/2020-04-01-20-22-20/routes.rou.xml"/>
    </netedit>

    <report>
        <aggregate-warnings value="5"/>
    </report>

</configuration>
-->

<routes xmlns:xsi="http://www.w3.org/2001/XMLSchema-instance" xsi:noNamespaceSchemaLocation="http://sumo.dlr.de/xsd/routes_file.xsd">
    <vType id="veh_passenger" vClass="passenger"/>
    <trip id="0" type="veh_passenger" depart="0.00" departLane="best" departSpeed="max" from="387746812" to="-292740546"/>
    <trip id="1" type="veh_passenger" depart="4.00" departLane="best" departSpeed="max" from="23336695" to="153261740"/>
    <trip id="2" type="veh_passenger" depart="8.00" departLane="best" from="3993621" to="3993622"/>
    <trip id="5" type="veh_passenger" depart="20.00" departLane="best" from="132979567" to="152317816"/>
    <trip id="6" type="veh_passenger" depart="24.00" departLane="best" departSpeed="max" from="387746812" to="26529486"/>
    <trip id="7" type="veh_passenger" depart="28.00" departLane="best" from="23286373" to="332873361"/>
    <trip id="10" type="veh_passenger" depart="40.00" departLane="best" departSpeed="max" from="23336695" to="150169930"/>
    <trip id="15" type="veh_passenger" depart="60.00" departLane="best" departSpeed="max" from="358653882" to="545720224"/>
    <trip id="17" type="veh_passenger" depart="68.00" departLane="best" from="4728850" to="387746832"/>
    <trip id="23" type="veh_passenger" depart="92.00" departLane="best" departSpeed="max" from="387746812" to="23286479"/>
    <trip id="25" type="veh_passenger" depart="100.00" departLane="best" departSpeed="max" from="23336695" to="545720221"/>
    <trip id="26" type="veh_passenger" depart="104.00" departLane="best" departSpeed="max" from="387746812" to="387746817"/>
    <trip id="27" type="veh_passenger" depart="108.00" departLane="best" departSpeed="max" from="20670230#0" to="3996919"/>
    <trip id="28" type="veh_passenger" depart="112.00" departLane="best" departSpeed="max" from="20670230#0" to="23286479"/>
    <trip id="29" type="veh_passenger" depart="116.00" departLane="best" from="94364182#1" to="39175424"/>
    <trip id="30" type="veh_passenger" depart="120.00" departLane="best" from="37976720" to="3996919"/>
    <trip id="33" type="veh_passenger" depart="132.00" departLane="best" departSpeed="max" from="23336695" to="20449464"/>
    <trip id="35" type="veh_passenger" depart="140.00" departLane="best" from="49430833" to="23286356"/>
    <trip id="36" type="veh_passenger" depart="144.00" departLane="best" from="387746817" to="23286479"/>
    <trip id="39" type="veh_passenger" depart="156.00" departLane="best" from="387746811" to="20449464"/>
    <trip id="40" type="veh_passenger" depart="160.00" departLane="best" departSpeed="max" from="387746812" to="4784417#0"/>
    <trip id="41" type="veh_passenger" depart="164.00" departLane="best" departSpeed="max" from="285112997" to="153261740"/>
    <trip id="42" type="veh_passenger" depart="168.00" departLane="best" from="94364185" to="23337422"/>
    <trip id="43" type="veh_passenger" depart="172.00" departLane="best" from="194765102" to="132979549"/>
    <trip id="45" type="veh_passenger" depart="180.00" departLane="best" departSpeed="max" from="4488584" to="23286479"/>
    <trip id="46" type="veh_passenger" depart="184.00" departLane="best" from="153261740" to="23286479"/>
    <trip id="47" type="veh_passenger" depart="188.00" departLane="best" from="94364184" to="234004932"/>
    <trip id="48" type="veh_passenger" depart="192.00" departLane="best" from="545720221" to="4496403"/>
    <trip id="49" type="veh_passenger" depart="196.00" departLane="best" from="132979547#0" to="3996919"/>
    <trip id="51" type="veh_passenger" depart="204.00" departLane="best" departSpeed="max" from="23336695" to="3993482"/>
    <trip id="52" type="veh_passenger" depart="208.00" departLane="best" from="20629597" to="23286479"/>
    <trip id="53" type="veh_passenger" depart="212.00" departLane="best" from="49203929" to="20449464"/>
    <trip id="54" type="veh_passenger" depart="216.00" departLane="best" departSpeed="max" from="358653882" to="150169930"/>
    <trip id="56" type="veh_passenger" depart="224.00" departLane="best" departSpeed="max" from="23336695" to="39175423"/>
    <trip id="57" type="veh_passenger" depart="228.00" departLane="best" from="4488571" to="236522916"/>
    <trip id="58" type="veh_passenger" depart="232.00" departLane="best" from="4488577" to="234004932"/>
    <trip id="60" type="veh_passenger" depart="240.00" departLane="best" from="132979558" to="49203929"/>
    <trip id="61" type="veh_passenger" depart="244.00" departLane="best" departSpeed="max" from="515553967" to="4488577"/>
    <trip id="62" type="veh_passenger" depart="248.00" departLane="best" departSpeed="max" from="23336695" to="132979565"/>
    <trip id="63" type="veh_passenger" depart="252.00" departLane="best" from="153368515" to="23337422"/>
    <trip id="64" type="veh_passenger" depart="256.00" departLane="best" from="153261740" to="3996919"/>
    <trip id="65" type="veh_passenger" depart="260.00" departLane="best" from="4488572" to="150169930"/>
    <trip id="66" type="veh_passenger" depart="264.00" departLane="best" departSpeed="max" from="358653882" to="307213473"/>
    <trip id="67" type="veh_passenger" depart="268.00" departLane="best" departSpeed="max" from="23336695" to="4746486"/>
    <trip id="68" type="veh_passenger" depart="272.00" departLane="best" departSpeed="max" from="292740546" to="153261739"/>
    <trip id="69" type="veh_passenger" depart="276.00" departLane="best" from="94364184" to="3993501"/>
    <trip id="70" type="veh_passenger" depart="280.00" departLane="best" from="307213473" to="23337422"/>
    <trip id="71" type="veh_passenger" depart="284.00" departLane="best" from="20645163" to="153261740"/>
    <trip id="72" type="veh_passenger" depart="288.00" departLane="best" departSpeed="max" from="23336695" to="332873361"/>
    <trip id="74" type="veh_passenger" depart="296.00" departLane="best" from="153261740" to="387746873"/>
    <trip id="75" type="veh_passenger" depart="300.00" departLane="best" from="23286376" to="4784424"/>
    <trip id="80" type="veh_passenger" depart="320.00" departLane="best" departSpeed="max" from="358653882" to="419865349"/>
    <trip id="81" type="veh_passenger" depart="324.00" departLane="best" from="4488588" to="150169931"/>
    <trip id="83" type="veh_passenger" depart="332.00" departLane="best" departSpeed="max" from="292740546" to="23337422"/>
    <trip id="84" type="veh_passenger" depart="336.00" departLane="best" from="3993620" to="3993621"/>
    <trip id="88" type="veh_passenger" depart="352.00" departLane="best" departSpeed="max" from="20670230#0" to="23336781"/>
    <trip id="91" type="veh_passenger" depart="364.00" departLane="best" departSpeed="max" from="358653882" to="132979552"/>
    <trip id="93" type="veh_passenger" depart="372.00" departLane="best" from="4784421" to="150169930"/>
    <trip id="94" type="veh_passenger" depart="376.00" departLane="best" departSpeed="max" from="358653882" to="153261739"/>
    <trip id="95" type="veh_passenger" depart="380.00" departLane="best" departSpeed="max" from="285112997" to="132979567"/>
    <trip id="100" type="veh_passenger" depart="400.00" departLane="best" from="37976720" to="3996919"/>
    <trip id="103" type="veh_passenger" depart="412.00" departLane="best" from="153261739" to="332873359"/>
    <trip id="104" type="veh_passenger" depart="416.00" departLane="best" departSpeed="max" from="358653882" to="4492727"/>
    <trip id="105" type="veh_passenger" depart="420.00" departLane="best" departSpeed="max" from="20670230#0" to="545720223#0"/>
    <trip id="106" type="veh_passenger" depart="424.00" departLane="best" from="153364495" to="150169931"/>
    <trip id="107" type="veh_passenger" depart="428.00" departLane="best" departSpeed="max" from="387746812" to="3993621"/>
    <trip id="110" type="veh_passenger" depart="440.00" departLane="best" departSpeed="max" from="387746812" to="387746834"/>
    <trip id="111" type="veh_passenger" depart="444.00" departLane="best" departSpeed="max" from="292740546" to="332873359"/>
    <trip id="113" type="veh_passenger" depart="452.00" departLane="best" from="23286275" to="3996919"/>
    <trip id="114" type="veh_passenger" depart="456.00" departLane="best" from="23286426" to="23286479"/>
    <trip id="116" type="veh_passenger" depart="464.00" departLane="best" departSpeed="max" from="23336695" to="3996919"/>
    <trip id="118" type="veh_passenger" depart="472.00" departLane="best" from="153320423" to="153261739"/>
    <trip id="120" type="veh_passenger" depart="480.00" departLane="best" departSpeed="max" from="515553967" to="4780562"/>
    <trip id="121" type="veh_passenger" depart="484.00" departLane="best" from="234004960" to="150169930"/>
    <trip id="123" type="veh_passenger" depart="492.00" departLane="best" departSpeed="max" from="387746812" to="94364182#0"/>
    <trip id="124" type="veh_passenger" depart="496.00" departLane="best" from="387746817" to="-292740546"/>
    <trip id="126" type="veh_passenger" depart="504.00" departLane="best" from="387746832" to="545720223#0"/>
    <trip id="127" type="veh_passenger" depart="508.00" departLane="best" departSpeed="max" from="20670230#0" to="150169930"/>
    <trip id="130" type="veh_passenger" depart="520.00" departLane="best" from="3993501" to="152317817"/>
    <trip id="131" type="veh_passenger" depart="524.00" departLane="best" departSpeed="max" from="387746812" to="20449464"/>
    <trip id="132" type="veh_passenger" depart="528.00" departLane="best" departSpeed="max" from="358653882" to="4784424"/>
    <trip id="135" type="veh_passenger" depart="540.00" departLane="best" departSpeed="max" from="387746812" to="20449464"/>
    <trip id="136" type="veh_passenger" depart="544.00" departLane="best" from="153364495" to="4780562"/>
    <trip id="137" type="veh_passenger" depart="548.00" departLane="best" departSpeed="max" from="515553967" to="26529486"/>
    <trip id="139" type="veh_passenger" depart="556.00" departLane="best" departSpeed="max" from="20670230#0" to="150169930"/>
    <trip id="140" type="veh_passenger" depart="560.00" departLane="best" departSpeed="max" from="23336695" to="4784420"/>
    <trip id="142" type="veh_passenger" depart="568.00" departLane="best" departSpeed="max" from="515553967" to="153261739"/>
    <trip id="145" type="veh_passenger" depart="580.00" departLane="best" departSpeed="max" from="285112997" to="387746860"/>
    <trip id="146" type="veh_passenger" depart="584.00" departLane="best" departSpeed="max" from="20670230#0" to="49430833"/>
    <trip id="148" type="veh_passenger" depart="592.00" departLane="best" from="4488588" to="4780562"/>
    <trip id="149" type="veh_passenger" depart="596.00" departLane="best" from="132979567" to="3996919"/>
    <trip id="152" type="veh_passenger" depart="608.00" departLane="best" from="4488588" to="20449464"/>
    <trip id="154" type="veh_passenger" depart="616.00" departLane="best" from="4893840" to="4496403"/>
    <trip id="155" type="veh_passenger" depart="620.00" departLane="best" from="23286373" to="4488571"/>
    <trip id="156" type="veh_passenger" depart="624.00" departLane="best" from="332873362" to="23286237"/>
    <trip id="158" type="veh_passenger" depart="632.00" departLane="best" from="132979565" to="152317816"/>
    <trip id="161" type="veh_passenger" depart="644.00" departLane="best" departSpeed="max" from="387746812" to="23286479"/>
    <trip id="162" type="veh_passenger" depart="648.00" departLane="best" from="75436542" to="236522916"/>
    <trip id="163" type="veh_passenger" depart="652.00" departLane="best" departSpeed="max" from="529221158" to="150169930"/>
    <trip id="164" type="veh_passenger" depart="656.00" departLane="best" from="545720221" to="150169930"/>
    <trip id="166" type="veh_passenger" depart="664.00" departLane="best" from="20474240" to="23286479"/>
    <trip id="167" type="veh_passenger" depart="668.00" departLane="best" from="3993620" to="23286356"/>
    <trip id="168" type="veh_passenger" depart="672.00" departLane="best" departSpeed="max" from="387746812" to="23337422"/>
    <trip id="170" type="veh_passenger" depart="680.00" departLane="best" departSpeed="max" from="23336695" to="3996919"/>
    <trip id="174" type="veh_passenger" depart="696.00" departLane="best" departSpeed="max" from="23336695" to="4488588"/>
    <trip id="177" type="veh_passenger" depart="708.00" departLane="best" departSpeed="max" from="20670230#0" to="23286479"/>
    <trip id="179" type="veh_passenger" depart="716.00" departLane="best" departSpeed="max" from="515553967" to="387746825"/>
    <trip id="183" type="veh_passenger" depart="732.00" departLane="best" from="387746817" to="23337422"/>
    <trip id="184" type="veh_passenger" depart="736.00" departLane="best" from="307216717" to="153261739"/>
    <trip id="185" type="veh_passenger" depart="740.00" departLane="best" departSpeed="max" from="358653882" to="4784420"/>
    <trip id="187" type="veh_passenger" depart="748.00" departLane="best" from="153368515" to="23337422"/>
    <trip id="189" type="veh_passenger" depart="756.00" departLane="best" from="4496399" to="3996919"/>
    <trip id="194" type="veh_passenger" depart="776.00" departLane="best" departSpeed="max" from="285112997" to="387746873"/>
    <trip id="197" type="veh_passenger" depart="788.00" departLane="best" from="387746817" to="-292740546"/>
    <trip id="199" type="veh_passenger" depart="796.00" departLane="best" from="20474090" to="23286479"/>
    <trip id="200" type="veh_passenger" depart="800.00" departLane="best" departSpeed="max" from="20670230#0" to="545720223#0"/>
    <trip id="201" type="veh_passenger" depart="804.00" departLane="best" departSpeed="max" from="358653882" to="132979552"/>
    <trip id="203" type="veh_passenger" depart="812.00" departLane="best" from="332873361" to="4488569#0"/>
    <trip id="205" type="veh_passenger" depart="820.00" departLane="best" departSpeed="max" from="387746812" to="545720223#0"/>
    <trip id="206" type="veh_passenger" depart="824.00" departLane="best" departSpeed="max" from="515553967" to="387746818"/>
    <trip id="207" type="veh_passenger" depart="828.00" departLane="best" from="3993501" to="23337422"/>
    <trip id="209" type="veh_passenger" depart="836.00" departLane="best" departSpeed="max" from="515553967" to="3996919"/>
    <trip id="210" type="veh_passenger" depart="840.00" departLane="best" departSpeed="max" from="358653882" to="20449464"/>
    <trip id="212" type="veh_passenger" depart="848.00" departLane="best" from="4488572" to="23337422"/>
    <trip id="213" type="veh_passenger" depart="852.00" departLane="best" departSpeed="max" from="387746812" to="20474072"/>
    <trip id="215" type="veh_passenger" depart="860.00" departLane="best" departSpeed="max" from="23336695" to="23286356"/>
    <trip id="216" type="veh_passenger" depart="864.00" departLane="best" departSpeed="max" from="358653882" to="150169930"/>
    <trip id="219" type="veh_passenger" depart="876.00" departLane="best" departSpeed="max" from="285112997" to="152367113"/>
    <trip id="220" type="veh_passenger" depart="880.00" departLane="best" departSpeed="max" from="292740546" to="4784424"/>
    <trip id="221" type="veh_passenger" depart="884.00" departLane="best" departSpeed="max" from="387746812" to="3996919"/>
    <trip id="222" type="veh_passenger" depart="888.00" departLane="best" from="4784428" to="3996919"/>
    <trip id="224" type="veh_passenger" depart="896.00" departLane="best" from="23336787" to="3996919"/>
    <trip id="225" type="veh_passenger" depart="900.00" departLane="best" from="4784427" to="545720223#0"/>
    <trip id="226" type="veh_passenger" depart="904.00" departLane="best" departSpeed="max" from="292740546" to="3996919"/>
    <trip id="228" type="veh_passenger" depart="912.00" departLane="best" from="23286373" to="153261740"/>
    <trip id="229" type="veh_passenger" depart="916.00" departLane="best" from="307213473" to="-292740546"/>
    <trip id="230" type="veh_passenger" depart="920.00" departLane="best" departSpeed="max" from="23336695" to="3993622"/>
    <trip id="231" type="veh_passenger" depart="924.00" departLane="best" departSpeed="max" from="285112997" to="150169930"/>
    <trip id="232" type="veh_passenger" depart="928.00" departLane="best" departSpeed="max" from="358653882" to="150169930"/>
    <trip id="233" type="veh_passenger" depart="932.00" departLane="best" departSpeed="max" from="387746812" to="-292740546"/>
    <trip id="235" type="veh_passenger" depart="940.00" departLane="best" from="132979567" to="3993482"/>
    <trip id="238" type="veh_passenger" depart="952.00" departLane="best" from="4488571" to="23286479"/>
    <trip id="240" type="veh_passenger" depart="960.00" departLane="best" from="132979558" to="236522916"/>
    <trip id="241" type="veh_passenger" depart="964.00" departLane="best" from="94364185" to="23286447"/>
    <trip id="243" type="veh_passenger" depart="972.00" departLane="best" from="387746817" to="3996919"/>
    <trip id="245" type="veh_passenger" depart="980.00" departLane="best" from="132979558" to="150169930"/>
    <trip id="246" type="veh_passenger" depart="984.00" departLane="best" departSpeed="max" from="20670230#0" to="3993621"/>
    <trip id="247" type="veh_passenger" depart="988.00" departLane="best" departSpeed="max" from="387746812" to="153261740"/>
    <trip id="248" type="veh_passenger" depart="992.00" departLane="best" from="39175135" to="419865347"/>
    <trip id="251" type="veh_passenger" depart="1004.00" departLane="best" departSpeed="max" from="23336695" to="3993622"/>
    <trip id="256" type="veh_passenger" depart="1024.00" departLane="best" from="20645163" to="94364181"/>
    <trip id="257" type="veh_passenger" depart="1028.00" departLane="best" from="4488583" to="23286447"/>
    <trip id="258" type="veh_passenger" depart="1032.00" departLane="best" departSpeed="max" from="292740546" to="23286479"/>
    <trip id="259" type="veh_passenger" depart="1036.00" departLane="best" departSpeed="max" from="358653882" to="23286423"/>
    <trip id="260" type="veh_passenger" depart="1040.00" departLane="best" from="4784421" to="4488572"/>
    <trip id="261" type="veh_passenger" depart="1044.00" departLane="best" from="20474090" to="545720223#0"/>
    <trip id="262" type="veh_passenger" depart="1048.00" departLane="best" departSpeed="max" from="387746812" to="4488575"/>
    <trip id="263" type="veh_passenger" depart="1052.00" departLane="best" from="3993482" to="23286479"/>
    <trip id="264" type="veh_passenger" depart="1056.00" departLane="best" from="3993621" to="545720223#0"/>
    <trip id="265" type="veh_passenger" depart="1060.00" departLane="best" departSpeed="max" from="23336695" to="4488569#0"/>
    <trip id="266" type="veh_passenger" depart="1064.00" departLane="best" departSpeed="max" from="358653882" to="23337422"/>
    <trip id="267" type="veh_passenger" depart="1068.00" departLane="best" from="307213473" to="3996919"/>
    <trip id="268" type="veh_passenger" depart="1072.00" departLane="best" departSpeed="max" from="23336695" to="4492727"/>
    <trip id="273" type="veh_passenger" depart="1092.00" departLane="best" from="4784424" to="150169930"/>
    <trip id="275" type="veh_passenger" depart="1100.00" departLane="best" departSpeed="max" from="23336695" to="4780562"/>
    <trip id="277" type="veh_passenger" depart="1108.00" departLane="best" from="132979547#0" to="545720223#0"/>
    <trip id="278" type="veh_passenger" depart="1112.00" departLane="best" from="153368515" to="3996919"/>
    <trip id="279" type="veh_passenger" depart="1116.00" departLane="best" from="387746862" to="3993482"/>
    <trip id="280" type="veh_passenger" depart="1120.00" departLane="best" departSpeed="max" from="358653882" to="4488561"/>
    <trip id="281" type="veh_passenger" depart="1124.00" departLane="best" from="194765102" to="153261740"/>
    <trip id="282" type="veh_passenger" depart="1128.00" departLane="best" from="387746862" to="23286266"/>
    <trip id="283" type="veh_passenger" depart="1132.00" departLane="best" departSpeed="max" from="387746812" to="23337422"/>
    <trip id="284" type="veh_passenger" depart="1136.00" departLane="best" departSpeed="max" from="358653882" to="23286479"/>
    <trip id="286" type="veh_passenger" depart="1144.00" departLane="best" from="39175424" to="20449464"/>
    <trip id="288" type="veh_passenger" depart="1152.00" departLane="best" departSpeed="max" from="20670230#0" to="150169930"/>
    <trip id="289" type="veh_passenger" depart="1156.00" departLane="best" departSpeed="max" from="20670230#0" to="153261739"/>
    <trip id="290" type="veh_passenger" depart="1160.00" departLane="best" from="705713551" to="23337422"/>
    <trip id="293" type="veh_passenger" depart="1172.00" departLane="best" departSpeed="max" from="20670230#0" to="-292740546"/>
    <trip id="294" type="veh_passenger" depart="1176.00" departLane="best" departSpeed="max" from="358653882" to="20474072"/>
    <trip id="295" type="veh_passenger" depart="1180.00" departLane="best" from="545720224" to="307216717"/>
    <trip id="296" type="veh_passenger" depart="1184.00" departLane="best" from="4893840" to="23337422"/>
    <trip id="298" type="veh_passenger" depart="1192.00" departLane="best" departSpeed="max" from="358653882" to="23286479"/>
    <trip id="299" type="veh_passenger" depart="1196.00" departLane="best" departSpeed="max" from="20670230#0" to="132979552"/>
    <trip id="301" type="veh_passenger" depart="1204.00" departLane="best" from="4496403" to="23286479"/>
    <trip id="302" type="veh_passenger" depart="1208.00" departLane="best" from="152367113" to="150169930"/>
    <trip id="304" type="veh_passenger" depart="1216.00" departLane="best" from="94364184" to="150169930"/>
    <trip id="307" type="veh_passenger" depart="1228.00" departLane="best" departSpeed="max" from="358653882" to="23336781"/>
    <trip id="308" type="veh_passenger" depart="1232.00" departLane="best" from="307216717" to="4496403"/>
    <trip id="309" type="veh_passenger" depart="1236.00" departLane="best" from="94364182#1" to="23286237"/>
    <trip id="310" type="veh_passenger" depart="1240.00" departLane="best" departSpeed="max" from="387746812" to="387746817"/>
    <trip id="313" type="veh_passenger" depart="1252.00" departLane="best" from="387746818" to="150169930"/>
    <trip id="315" type="veh_passenger" depart="1260.00" departLane="best" from="108035020" to="23336781"/>
    <trip id="319" type="veh_passenger" depart="1276.00" departLane="best" from="387746861" to="4893840"/>
    <trip id="322" type="veh_passenger" depart="1288.00" departLane="best" departSpeed="max" from="292740546" to="26529486"/>
    <trip id="323" type="veh_passenger" depart="1292.00" departLane="best" departSpeed="max" from="387746812" to="4784427"/>
    <trip id="325" type="veh_passenger" depart="1300.00" departLane="best" departSpeed="max" from="20670230#0" to="23286266"/>
    <trip id="327" type="veh_passenger" depart="1308.00" departLane="best" departSpeed="max" from="23336695" to="150169930"/>
    <trip id="328" type="veh_passenger" depart="1312.00" departLane="best" from="387746861" to="3996919"/>
    <trip id="332" type="veh_passenger" depart="1328.00" departLane="best" departSpeed="max" from="23336695" to="20435734"/>
    <trip id="333" type="veh_passenger" depart="1332.00" departLane="best" from="194765102" to="545720223#0"/>
    <trip id="338" type="veh_passenger" depart="1352.00" departLane="best" departSpeed="max" from="358653882" to="3993501"/>
    <trip id="339" type="veh_passenger" depart="1356.00" departLane="best" from="529221157" to="150169930"/>
    <trip id="340" type="veh_passenger" depart="1360.00" departLane="best" departSpeed="max" from="387746812" to="387746881"/>
    <trip id="344" type="veh_passenger" depart="1376.00" departLane="best" departSpeed="max" from="23336695" to="3996919"/>
    <trip id="345" type="veh_passenger" depart="1380.00" departLane="best" departSpeed="max" from="23336695" to="545720223#0"/>
    <trip id="348" type="veh_passenger" depart="1392.00" departLane="best" departSpeed="max" from="23336695" to="545720223#0"/>
    <trip id="349" type="veh_passenger" depart="1396.00" departLane="best" departSpeed="max" from="285112997" to="23337422"/>
    <trip id="350" type="veh_passenger" depart="1400.00" departLane="best" from="94364182#0" to="3993502"/>
    <trip id="351" type="veh_passenger" depart="1404.00" departLane="best" departSpeed="max" from="358653882" to="23286479"/>
    <trip id="352" type="veh_passenger" depart="1408.00" departLane="best" departSpeed="max" from="20670230#0" to="23286479"/>
    <trip id="354" type="veh_passenger" depart="1416.00" departLane="best" from="4488563" to="152317817"/>
    <trip id="355" type="veh_passenger" depart="1420.00" departLane="best" departSpeed="max" from="358653882" to="49203929"/>
    <trip id="356" type="veh_passenger" depart="1424.00" departLane="best" from="307213473" to="3996919"/>
    <trip id="357" type="veh_passenger" depart="1428.00" departLane="best" from="20645163" to="545720224"/>
    <trip id="359" type="veh_passenger" depart="1436.00" departLane="best" departSpeed="max" from="20670230#0" to="307213473"/>
    <trip id="361" type="veh_passenger" depart="1444.00" departLane="best" from="94364182#1" to="4784428"/>
    <trip id="362" type="veh_passenger" depart="1448.00" departLane="best" from="332873362" to="150169930"/>
    <trip id="363" type="veh_passenger" depart="1452.00" departLane="best" from="4728850" to="23337422"/>
    <trip id="364" type="veh_passenger" depart="1456.00" departLane="best" from="3993501" to="23337422"/>
    <trip id="365" type="veh_passenger" depart="1460.00" departLane="best" departSpeed="max" from="23336695" to="4488577"/>
    <trip id="367" type="veh_passenger" depart="1468.00" departLane="best" departSpeed="max" from="358653882" to="23286479"/>
    <trip id="370" type="veh_passenger" depart="1480.00" departLane="best" departSpeed="max" from="23336695" to="4488560#0"/>
    <trip id="372" type="veh_passenger" depart="1488.00" departLane="best" departSpeed="max" from="358653882" to="4488571"/>
    <trip id="374" type="veh_passenger" depart="1496.00" departLane="best" departSpeed="max" from="387746812" to="94364185"/>
    <trip id="375" type="veh_passenger" depart="1500.00" departLane="best" departSpeed="max" from="358653882" to="150169930"/>
    <trip id="376" type="veh_passenger" depart="1504.00" departLane="best" departSpeed="max" from="358653882" to="23286426"/>
    <trip id="377" type="veh_passenger" depart="1508.00" departLane="best" departSpeed="max" from="358653882" to="26529486"/>
    <trip id="379" type="veh_passenger" depart="1516.00" departLane="best" departSpeed="max" from="20670230#0" to="3996919"/>
    <trip id="380" type="veh_passenger" depart="1520.00" departLane="best" departSpeed="max" from="387746812" to="153364495"/>
    <trip id="384" type="veh_passenger" depart="1536.00" departLane="best" from="387746832" to="4488571"/>
    <trip id="385" type="veh_passenger" depart="1540.00" departLane="best" from="75436542" to="23337422"/>
    <trip id="387" type="veh_passenger" depart="1548.00" departLane="best" departSpeed="max" from="387746812" to="4746486"/>
    <trip id="388" type="veh_passenger" depart="1552.00" departLane="best" from="49203929" to="23286479"/>
    <trip id="389" type="veh_passenger" depart="1556.00" departLane="best" departSpeed="max" from="358653882" to="23336787"/>
    <trip id="391" type="veh_passenger" depart="1564.00" departLane="best" from="387746817" to="150169930"/>
    <trip id="392" type="veh_passenger" depart="1568.00" departLane="best" departSpeed="max" from="358653882" to="545720223#0"/>
    <trip id="393" type="veh_passenger" depart="1572.00" departLane="best" departSpeed="max" from="23336695" to="3996919"/>
    <trip id="394" type="veh_passenger" depart="1576.00" departLane="best" departSpeed="max" from="387746812" to="4492727"/>
    <trip id="396" type="veh_passenger" depart="1584.00" departLane="best" from="3993501" to="3996919"/>
    <trip id="397" type="veh_passenger" depart="1588.00" departLane="best" from="153261740" to="387746873"/>
    <trip id="399" type="veh_passenger" depart="1596.00" departLane="best" from="4488554" to="23286479"/>
    <trip id="401" type="veh_passenger" depart="1604.00" departLane="best" from="49203929" to="23286479"/>
    <trip id="402" type="veh_passenger" depart="1608.00" departLane="best" from="387746873" to="4784421"/>
    <trip id="404" type="veh_passenger" depart="1616.00" departLane="best" departSpeed="max" from="20670230#0" to="234004960"/>
    <trip id="405" type="veh_passenger" depart="1620.00" departLane="best" departSpeed="max" from="387746812" to="4488561"/>